 LSTC 50th% Full_FE H-III Dummy (Beta Version, February 17, 2019)        
                    ls-dyna smp s R16 R16.0_619_d222963 date 03/18/2025

{BEGIN LEGEND}
 Entity #        Title
    22626                                                                                     
{END LEGEND}




 n o d a l   p r i n t   o u t   f o r   t i m e  s t e p       1                              ( at time 0.0000000E+00 )

 nodal point  x-disp     y-disp      z-disp      x-vel       y-vel       z-vel      x-accl      y-accl      z-accl      x-coor      y-coor      z-coor
    22626  0.00000E+00 0.00000E+00 0.00000E+00 0.00000E+00 0.00000E+00 0.00000E+00 0.00000E+00 0.00000E+00 0.00000E+00 4.65938E+00-2.81908E+01-4.49817E+01



 n o d a l   p r i n t   o u t   f o r   t i m e  s t e p       1                              ( at time 0.0000000E+00 )

 nodal point  x-rot      y-rot       z-rot       x-rot vel   y-rot vel   z-rot vel   x-rot acc   y-rot acc   z-rot acc
    22626  0.00000E+00 0.00000E+00 0.00000E+00 0.00000E+00 0.00000E+00 0.00000E+00 0.00000E+00 0.00000E+00 0.00000E+00



 n o d a l   p r i n t   o u t   f o r   t i m e  s t e p     201                              ( at time 9.9989993E-02 )

 nodal point  x-disp     y-disp      z-disp      x-vel       y-vel       z-vel      x-accl      y-accl      z-accl      x-coor      y-coor      z-coor
    22626  2.73575E-07 1.73669E-06-5.34278E-05 4.19751E-05 2.55596E-04-1.46819E-03 4.19793E-04 2.55621E-03-1.46834E-02 4.65938E+00-2.81908E+01-4.49818E+01



 n o d a l   p r i n t   o u t   f o r   t i m e  s t e p     201                              ( at time 9.9989993E-02 )

 nodal point  x-rot      y-rot       z-rot       x-rot vel   y-rot vel   z-rot vel   x-rot acc   y-rot acc   z-rot acc
    22626 -5.98981E-08-8.38469E-09-5.45922E-09-5.86954E-06-9.69953E-07-9.27113E-07-5.87013E-05-9.70050E-06-9.27206E-06



 n o d a l   p r i n t   o u t   f o r   t i m e  s t e p     401                              ( at time 1.9997999E-01 )

 nodal point  x-disp     y-disp      z-disp      x-vel       y-vel       z-vel      x-accl      y-accl      z-accl      x-coor      y-coor      z-coor
    22626  1.73092E-05 3.61743E-04-6.67586E-04 3.06293E-05 7.81165E-03-1.21552E-02-1.13469E-04 7.55681E-02-1.06881E-01 4.65939E+00-2.81905E+01-4.49824E+01



 n o d a l   p r i n t   o u t   f o r   t i m e  s t e p     401                              ( at time 1.9997999E-01 )

 nodal point  x-rot      y-rot       z-rot       x-rot vel   y-rot vel   z-rot vel   x-rot acc   y-rot acc   z-rot acc
    22626 -2.82007E-06-3.37144E-07-3.34541E-07-3.94447E-05-1.76606E-06-2.29331E-06-3.35785E-04-7.96184E-06-1.36633E-05



 n o d a l   p r i n t   o u t   f o r   t i m e  s t e p     601                              ( at time 2.9996998E-01 )

 nodal point  x-disp     y-disp      z-disp      x-vel       y-vel       z-vel      x-accl      y-accl      z-accl      x-coor      y-coor      z-coor
    22626  2.73688E-05 1.24008E-03-2.33844E-03 4.21573E-04 8.45026E-03-1.92557E-02 3.90983E-03 6.38672E-03-7.10116E-02 4.65940E+00-2.81896E+01-4.49841E+01



 n o d a l   p r i n t   o u t   f o r   t i m e  s t e p     601                              ( at time 2.9996998E-01 )

 nodal point  x-rot      y-rot       z-rot       x-rot vel   y-rot vel   z-rot vel   x-rot acc   y-rot acc   z-rot acc
    22626 -5.38434E-06-3.90702E-07-6.42733E-07-1.53458E-05-5.52236E-06-6.71559E-06 2.41013E-04-3.75668E-05-4.42272E-05



 n o d a l   p r i n t   o u t   f o r   t i m e  s t e p     801                              ( at time 3.9995997E-01 )

 nodal point  x-disp     y-disp      z-disp      x-vel       y-vel       z-vel      x-accl      y-accl      z-accl      x-coor      y-coor      z-coor
    22626  2.60344E-05 2.16245E-03-4.28286E-03-3.14763E-04 1.07367E-02-2.10875E-02-7.36409E-03 2.28670E-02-1.83203E-02 4.65940E+00-2.81887E+01-4.49860E+01



 n o d a l   p r i n t   o u t   f o r   t i m e  s t e p     801                              ( at time 3.9995997E-01 )

 nodal point  x-rot      y-rot       z-rot       x-rot vel   y-rot vel   z-rot vel   x-rot acc   y-rot acc   z-rot acc
    22626 -7.61653E-06-1.25034E-06-9.81633E-07-4.50524E-05-6.18475E-06-1.43759E-06-2.97096E-04-6.62459E-06 5.27852E-05



 n o d a l   p r i n t   o u t   f o r   t i m e  s t e p    1001                              ( at time 4.9994997E-01 )

 nodal point  x-disp     y-disp      z-disp      x-vel       y-vel       z-vel      x-accl      y-accl      z-accl      x-coor      y-coor      z-coor
    22626  3.70969E-06 3.43651E-03-6.74480E-03-2.40849E-04 1.41482E-02-2.87063E-02 7.39215E-04 3.41179E-02-7.61954E-02 4.65938E+00-2.81874E+01-4.49885E+01



 n o d a l   p r i n t   o u t   f o r   t i m e  s t e p    1001                              ( at time 4.9994997E-01 )

 nodal point  x-rot      y-rot       z-rot       x-rot vel   y-rot vel   z-rot vel   x-rot acc   y-rot acc   z-rot acc
    22626 -1.35616E-05-1.16560E-06-9.49248E-07-8.42768E-05 3.16434E-06 4.17094E-06-3.92283E-04 9.35003E-05 5.60910E-05



 n o d a l   p r i n t   o u t   f o r   t i m e  s t e p    1201                              ( at time 5.9993996E-01 )

 nodal point  x-disp     y-disp      z-disp      x-vel       y-vel       z-vel      x-accl      y-accl      z-accl      x-coor      y-coor      z-coor
    22626 -8.93741E-07 5.01225E-03-9.71615E-03 4.47708E-05 1.67007E-02-3.09904E-02 2.85648E-03 2.55282E-02-2.28435E-02 4.65937E+00-2.81858E+01-4.49914E+01



 n o d a l   p r i n t   o u t   f o r   t i m e  s t e p    1201                              ( at time 5.9993996E-01 )

 nodal point  x-rot      y-rot       z-rot       x-rot vel   y-rot vel   z-rot vel   x-rot acc   y-rot acc   z-rot acc
    22626 -2.02879E-05-8.86935E-07-9.58234E-07-5.90477E-05 3.87028E-06-2.02870E-06 2.52316E-04 7.06014E-06-6.20026E-05



 n o d a l   p r i n t   o u t   f o r   t i m e  s t e p    1401                              ( at time 6.9992995E-01 )

 nodal point  x-disp     y-disp      z-disp      x-vel       y-vel       z-vel      x-accl      y-accl      z-accl      x-coor      y-coor      z-coor
    22626 -5.09713E-05 6.85041E-03-1.31710E-02-4.88327E-04 1.96570E-02-3.89693E-02-5.33151E-03 2.95660E-02-7.97971E-02 4.65932E+00-2.81840E+01-4.49949E+01



 n o d a l   p r i n t   o u t   f o r   t i m e  s t e p    1401                              ( at time 6.9992995E-01 )

 nodal point  x-rot      y-rot       z-rot       x-rot vel   y-rot vel   z-rot vel   x-rot acc   y-rot acc   z-rot acc
    22626 -2.62096E-05-9.00772E-07-6.32424E-07-7.11523E-05 3.25307E-07 3.86183E-06-1.21058E-04-3.54533E-05 5.89112E-05



 n o d a l   p r i n t   o u t   f o r   t i m e  s t e p    1601                              ( at time 7.9991994E-01 )

 nodal point  x-disp     y-disp      z-disp      x-vel       y-vel       z-vel      x-accl      y-accl      z-accl      x-coor      y-coor      z-coor
    22626 -8.02834E-05 8.98672E-03-1.74642E-02-5.00180E-04 2.21639E-02-4.51197E-02-1.18543E-04 2.50712E-02-6.15098E-02 4.65929E+00-2.81818E+01-4.49992E+01



 n o d a l   p r i n t   o u t   f o r   t i m e  s t e p    1601                              ( at time 7.9991994E-01 )

 nodal point  x-rot      y-rot       z-rot       x-rot vel   y-rot vel   z-rot vel   x-rot acc   y-rot acc   z-rot acc
    22626 -3.43995E-05-8.78631E-07-5.14565E-07-9.20287E-05-4.79372E-06 1.58663E-06-2.08785E-04-5.11954E-05-2.27543E-05



 n o d a l   p r i n t   o u t   f o r   t i m e  s t e p    1801                              ( at time 8.9990994E-01 )

 nodal point  x-disp     y-disp      z-disp      x-vel       y-vel       z-vel      x-accl      y-accl      z-accl      x-coor      y-coor      z-coor
    22626 -1.16875E-04 1.12542E-02-2.19906E-02-2.85380E-04 2.40449E-02-4.55846E-02 2.14821E-03 1.88118E-02-4.64970E-03 4.65926E+00-2.81796E+01-4.50037E+01



 n o d a l   p r i n t   o u t   f o r   t i m e  s t e p    1801                              ( at time 8.9990994E-01 )

 nodal point  x-rot      y-rot       z-rot       x-rot vel   y-rot vel   z-rot vel   x-rot acc   y-rot acc   z-rot acc
    22626 -4.28181E-05-9.57509E-07-5.02123E-07-8.23397E-05 1.87861E-06-7.08574E-07 9.68999E-05 6.67300E-05-2.29544E-05



 n o d a l   p r i n t   o u t   f o r   t i m e  s t e p    2001                              ( at time 9.9989993E-01 )

 nodal point  x-disp     y-disp      z-disp      x-vel       y-vel       z-vel      x-accl      y-accl      z-accl      x-coor      y-coor      z-coor
    22626 -1.52034E-04 1.37913E-02-2.67304E-02-3.69881E-05 2.64983E-02-5.00373E-02 2.48417E-03 2.45368E-02-4.45316E-02 4.65922E+00-2.81770E+01-4.50084E+01



 n o d a l   p r i n t   o u t   f o r   t i m e  s t e p    2001                              ( at time 9.9989993E-01 )

 nodal point  x-rot      y-rot       z-rot       x-rot vel   y-rot vel   z-rot vel   x-rot acc   y-rot acc   z-rot acc
    22626 -5.18489E-05-9.08184E-07-4.37361E-07-1.06166E-04 1.32255E-06-3.07495E-06-2.38284E-04-5.56121E-06-2.36661E-05



 n o d a l   p r i n t   o u t   f o r   t i m e  s t e p    2201                              ( at time 1.0998899E+00 )

 nodal point  x-disp     y-disp      z-disp      x-vel       y-vel       z-vel      x-accl      y-accl      z-accl      x-coor      y-coor      z-coor
    22626 -1.59809E-04 1.65321E-02-3.20558E-02-3.41490E-04 2.88850E-02-5.60797E-02-3.04532E-03 2.38693E-02-6.04299E-02 4.65921E+00-2.81743E+01-4.50138E+01



 n o d a l   p r i n t   o u t   f o r   t i m e  s t e p    2201                              ( at time 1.0998899E+00 )

 nodal point  x-rot      y-rot       z-rot       x-rot vel   y-rot vel   z-rot vel   x-rot acc   y-rot acc   z-rot acc
    22626 -6.29468E-05-1.00483E-06-7.49827E-07-1.03616E-04-7.65569E-06-2.02469E-06 2.55018E-05-8.97913E-05 1.05036E-05



 n o d a l   p r i n t   o u t   f o r   t i m e  s t e p    2401                              ( at time 1.1998799E+00 )

 nodal point  x-disp     y-disp      z-disp      x-vel       y-vel       z-vel      x-accl      y-accl      z-accl      x-coor      y-coor      z-coor
    22626 -1.89756E-04 1.94752E-02-3.79327E-02-1.95459E-04 3.02289E-02-6.12094E-02 1.46045E-03 1.34396E-02-5.13020E-02 4.65919E+00-2.81714E+01-4.50197E+01



 n o d a l   p r i n t   o u t   f o r   t i m e  s t e p    2401                              ( at time 1.1998799E+00 )

 nodal point  x-rot      y-rot       z-rot       x-rot vel   y-rot vel   z-rot vel   x-rot acc   y-rot acc   z-rot acc
    22626 -7.29513E-05-1.61426E-06-9.90998E-07-1.01155E-04-7.12759E-06-3.00489E-06 2.46151E-05 5.28148E-06-9.80293E-06



 n o d a l   p r i n t   o u t   f o r   t i m e  s t e p    2601                              ( at time 1.2998699E+00 )

 nodal point  x-disp     y-disp      z-disp      x-vel       y-vel       z-vel      x-accl      y-accl      z-accl      x-coor      y-coor      z-coor
    22626 -2.23856E-04 2.26249E-02-4.42079E-02-2.50317E-04 3.25980E-02-6.40533E-02-5.48632E-04 2.36936E-02-2.84424E-02 4.65915E+00-2.81682E+01-4.50259E+01



 n o d a l   p r i n t   o u t   f o r   t i m e  s t e p    2601                              ( at time 1.2998699E+00 )

 nodal point  x-rot      y-rot       z-rot       x-rot vel   y-rot vel   z-rot vel   x-rot acc   y-rot acc   z-rot acc
    22626 -8.39941E-05-2.17167E-06-1.24611E-06-1.29415E-04 1.91481E-08-1.43678E-06-2.82633E-04 7.14745E-05 1.56826E-05



 n o d a l   p r i n t   o u t   f o r   t i m e  s t e p    2801                              ( at time 1.3998599E+00 )

 nodal point  x-disp     y-disp      z-disp      x-vel       y-vel       z-vel      x-accl      y-accl      z-accl      x-coor      y-coor      z-coor
    22626 -2.51457E-04 2.59923E-02-5.07121E-02-4.51887E-04 3.45155E-02-6.66692E-02-2.01591E-03 1.91773E-02-2.61615E-02 4.65912E+00-2.81648E+01-4.50324E+01



 n o d a l   p r i n t   o u t   f o r   t i m e  s t e p    2801                              ( at time 1.3998599E+00 )

 nodal point  x-rot      y-rot       z-rot       x-rot vel   y-rot vel   z-rot vel   x-rot acc   y-rot acc   z-rot acc
    22626 -9.73984E-05-2.01162E-06-1.34516E-06-1.36969E-04-2.02186E-07 1.70562E-06-7.55519E-05-2.21357E-06 3.14272E-05



 n o d a l   p r i n t   o u t   f o r   t i m e  s t e p    3001                              ( at time 1.4998499E+00 )

 nodal point  x-disp     y-disp      z-disp      x-vel       y-vel       z-vel      x-accl      y-accl      z-accl      x-coor      y-coor      z-coor
    22626 -2.96310E-04 2.95911E-02-5.77242E-02-4.48704E-04 3.72836E-02-7.39858E-02 3.18358E-05 2.76834E-02-7.31733E-02 4.65908E+00-2.81612E+01-4.50394E+01



 n o d a l   p r i n t   o u t   f o r   t i m e  s t e p    3001                              ( at time 1.4998499E+00 )

 nodal point  x-rot      y-rot       z-rot       x-rot vel   y-rot vel   z-rot vel   x-rot acc   y-rot acc   z-rot acc
    22626 -1.10707E-04-2.03064E-06-1.27167E-06-1.28538E-04-1.09682E-06-1.73566E-06 8.43241E-05-8.94725E-06-3.44162E-05



 n o d a l   p r i n t   o u t   f o r   t i m e  s t e p    3201                              ( at time 1.5998399E+00 )

 nodal point  x-disp     y-disp      z-disp      x-vel       y-vel       z-vel      x-accl      y-accl      z-accl      x-coor      y-coor      z-coor
    22626 -3.60093E-04 3.34891E-02-6.54464E-02-5.81934E-04 4.05364E-02-7.97019E-02-1.33243E-03 3.25319E-02-5.71661E-02 4.65901E+00-2.81573E+01-4.50472E+01



 n o d a l   p r i n t   o u t   f o r   t i m e  s t e p    3201                              ( at time 1.5998399E+00 )

 nodal point  x-rot      y-rot       z-rot       x-rot vel   y-rot vel   z-rot vel   x-rot acc   y-rot acc   z-rot acc
    22626 -1.23310E-04-2.14891E-06-1.09778E-06-1.34879E-04-2.93815E-06 3.11289E-06-6.34207E-05-1.84151E-05 4.84903E-05



 n o d a l   p r i n t   o u t   f o r   t i m e  s t e p    3401                              ( at time 1.6998299E+00 )

 nodal point  x-disp     y-disp      z-disp      x-vel       y-vel       z-vel      x-accl      y-accl      z-accl      x-coor      y-coor      z-coor
    22626 -4.21723E-04 3.76416E-02-7.35823E-02-7.28364E-04 4.22399E-02-8.25913E-02-1.46445E-03 1.70366E-02-2.88971E-02 4.65895E+00-2.81532E+01-4.50553E+01



 n o d a l   p r i n t   o u t   f o r   t i m e  s t e p    3401                              ( at time 1.6998299E+00 )

 nodal point  x-rot      y-rot       z-rot       x-rot vel   y-rot vel   z-rot vel   x-rot acc   y-rot acc   z-rot acc
    22626 -1.37610E-04-2.15252E-06-9.09117E-07-1.47608E-04 1.62299E-06 3.97725E-06-1.27303E-04 4.56159E-05 8.64445E-06



 n o d a l   p r i n t   o u t   f o r   t i m e  s t e p    3601                              ( at time 1.7998199E+00 )

 nodal point  x-disp     y-disp      z-disp      x-vel       y-vel       z-vel      x-accl      y-accl      z-accl      x-coor      y-coor      z-coor
    22626 -4.84841E-04 4.19001E-02-8.19598E-02-5.08704E-04 4.32806E-02-8.48716E-02 2.19682E-03 1.04081E-02-2.28050E-02 4.65889E+00-2.81489E+01-4.50637E+01



 n o d a l   p r i n t   o u t   f o r   t i m e  s t e p    3601                              ( at time 1.7998199E+00 )

 nodal point  x-rot      y-rot       z-rot       x-rot vel   y-rot vel   z-rot vel   x-rot acc   y-rot acc   z-rot acc
    22626 -1.52820E-04-2.06389E-06-7.78126E-07-1.49722E-04 1.53670E-06-1.40811E-06-2.11401E-05-8.62969E-07-5.38591E-05



 n o d a l   p r i n t   o u t   f o r   t i m e  s t e p    3801                              ( at time 1.8998099E+00 )

 nodal point  x-disp     y-disp      z-disp      x-vel       y-vel       z-vel      x-accl      y-accl      z-accl      x-coor      y-coor      z-coor
    22626 -5.44081E-04 4.63775E-02-9.06358E-02-5.21704E-04 4.60783E-02-8.88731E-02-1.30012E-04 2.79791E-02-4.00197E-02 4.65883E+00-2.81445E+01-4.50724E+01



 n o d a l   p r i n t   o u t   f o r   t i m e  s t e p    3801                              ( at time 1.8998099E+00 )

 nodal point  x-rot      y-rot       z-rot       x-rot vel   y-rot vel   z-rot vel   x-rot acc   y-rot acc   z-rot acc
    22626 -1.67674E-04-1.85547E-06-6.48458E-07-1.49873E-04-1.50202E-06-4.88405E-07-1.51020E-06-3.03902E-05 9.19800E-06



 n o d a l   p r i n t   o u t   f o r   t i m e  s t e p    4001                              ( at time 1.9997999E+00 )

 nodal point  x-disp     y-disp      z-disp      x-vel       y-vel       z-vel      x-accl      y-accl      z-accl      x-coor      y-coor      z-coor
    22626 -5.94963E-04 5.10272E-02-9.97453E-02-5.47725E-04 4.71691E-02-9.31129E-02-2.60242E-04 1.09095E-02-4.24023E-02 4.65878E+00-2.81398E+01-4.50815E+01



 n o d a l   p r i n t   o u t   f o r   t i m e  s t e p    4001                              ( at time 1.9997999E+00 )

 nodal point  x-rot      y-rot       z-rot       x-rot vel   y-rot vel   z-rot vel   x-rot acc   y-rot acc   z-rot acc
    22626 -1.82767E-04-2.09026E-06-6.98283E-07-1.56039E-04-4.69767E-06-1.67239E-07-6.16693E-05-3.19597E-05 3.21199E-06



 n o d a l   p r i n t   o u t   f o r   t i m e  s t e p    4201                              ( at time 2.0997899E+00 )

 nodal point  x-disp     y-disp      z-disp      x-vel       y-vel       z-vel      x-accl      y-accl      z-accl      x-coor      y-coor      z-coor
    22626 -6.49001E-04 5.57836E-02-1.09162E-01-5.56415E-04 4.81936E-02-9.53031E-02-8.69057E-05 1.02454E-02-2.19037E-02 4.65873E+00-2.81350E+01-4.50909E+01



 n o d a l   p r i n t   o u t   f o r   t i m e  s t e p    4201                              ( at time 2.0997899E+00 )

 nodal point  x-rot      y-rot       z-rot       x-rot vel   y-rot vel   z-rot vel   x-rot acc   y-rot acc   z-rot acc
    22626 -1.97945E-04-2.48055E-06-8.62679E-07-1.49992E-04-1.49442E-06 2.07196E-06 6.04793E-05 3.20357E-05 2.23942E-05



 n o d a l   p r i n t   o u t   f o r   t i m e  s t e p    4401                              ( at time 2.1997798E+00 )

 nodal point  x-disp     y-disp      z-disp      x-vel       y-vel       z-vel      x-accl      y-accl      z-accl      x-coor      y-coor      z-coor
    22626 -7.07734E-04 6.06672E-02-1.18761E-01-4.97892E-04 4.91612E-02-9.67392E-02 5.85288E-04 9.67734E-03-1.43630E-02 4.65867E+00-2.81302E+01-4.51005E+01



 n o d a l   p r i n t   o u t   f o r   t i m e  s t e p    4401                              ( at time 2.1997798E+00 )

 nodal point  x-rot      y-rot       z-rot       x-rot vel   y-rot vel   z-rot vel   x-rot acc   y-rot acc   z-rot acc
    22626 -2.13319E-04-2.58873E-06-8.59948E-07-1.59367E-04-1.62145E-06-1.10147E-06-9.37570E-05-1.27040E-06-3.17376E-05



 n o d a l   p r i n t   o u t   f o r   t i m e  s t e p    4601                              ( at time 2.2997698E+00 )

 nodal point  x-disp     y-disp      z-disp      x-vel       y-vel       z-vel      x-accl      y-accl      z-accl      x-coor      y-coor      z-coor
    22626 -7.62866E-04 6.56143E-02-1.28510E-01-6.49486E-04 5.01828E-02-9.87394E-02-1.51609E-03 1.02168E-02-2.00037E-02 4.65861E+00-2.81252E+01-4.51102E+01



 n o d a l   p r i n t   o u t   f o r   t i m e  s t e p    4601                              ( at time 2.2997698E+00 )

 nodal point  x-rot      y-rot       z-rot       x-rot vel   y-rot vel   z-rot vel   x-rot acc   y-rot acc   z-rot acc
    22626 -2.29837E-04-2.52164E-06-8.68450E-07-1.61369E-04 8.44135E-07-9.47458E-07-2.00203E-05 2.46583E-05 1.54032E-06



 n o d a l   p r i n t   o u t   f o r   t i m e  s t e p    4801                              ( at time 2.3997598E+00 )

 nodal point  x-disp     y-disp      z-disp      x-vel       y-vel       z-vel      x-accl      y-accl      z-accl      x-coor      y-coor      z-coor
    22626 -8.37291E-04 7.07391E-02-1.38609E-01-7.68248E-04 5.20276E-02-1.03263E-01-1.18773E-03 1.84504E-02-4.52361E-02 4.65854E+00-2.81201E+01-4.51203E+01



 n o d a l   p r i n t   o u t   f o r   t i m e  s t e p    4801                              ( at time 2.3997598E+00 )

 nodal point  x-rot      y-rot       z-rot       x-rot vel   y-rot vel   z-rot vel   x-rot acc   y-rot acc   z-rot acc
    22626 -2.45588E-04-2.51294E-06-5.96192E-07-1.55448E-04 1.32002E-08 4.20740E-06 5.92139E-05-8.31019E-06 5.15538E-05



 n o d a l   p r i n t   o u t   f o r   t i m e  s t e p    5001                              ( at time 2.4997498E+00 )

 nodal point  x-disp     y-disp      z-disp      x-vel       y-vel       z-vel      x-accl      y-accl      z-accl      x-coor      y-coor      z-coor
    22626 -9.18513E-04 7.60401E-02-1.49106E-01-9.22346E-04 5.34345E-02-1.05956E-01-1.54113E-03 1.40702E-02-2.69416E-02 4.65846E+00-2.81148E+01-4.51308E+01



 n o d a l   p r i n t   o u t   f o r   t i m e  s t e p    5001                              ( at time 2.4997498E+00 )

 nodal point  x-rot      y-rot       z-rot       x-rot vel   y-rot vel   z-rot vel   x-rot acc   y-rot acc   z-rot acc
    22626 -2.61160E-04-2.39281E-06-3.34328E-07-1.54947E-04 1.77655E-06 4.35583E-06 5.01407E-06 1.76352E-05 1.48448E-06



 n o d a l   p r i n t   o u t   f o r   t i m e  s t e p    5201                              ( at time 2.5997398E+00 )

 nodal point  x-disp     y-disp      z-disp      x-vel       y-vel       z-vel      x-accl      y-accl      z-accl      x-coor      y-coor      z-coor
    22626 -1.00921E-03 8.13922E-02-1.59710E-01-9.92444E-04 5.34928E-02-1.06027E-01-7.01054E-04 5.83253E-04-7.01320E-04 4.65837E+00-2.81094E+01-4.51414E+01



 n o d a l   p r i n t   o u t   f o r   t i m e  s t e p    5201                              ( at time 2.5997398E+00 )

 nodal point  x-rot      y-rot       z-rot       x-rot vel   y-rot vel   z-rot vel   x-rot acc   y-rot acc   z-rot acc
    22626 -2.76667E-04-2.06559E-06 5.76944E-08-1.51587E-04 5.07590E-06 5.00229E-06 3.36032E-05 3.29969E-05 6.46526E-06



 n o d a l   p r i n t   o u t   f o r   t i m e  s t e p    5401                              ( at time 2.6997298E+00 )

 nodal point  x-disp     y-disp      z-disp      x-vel       y-vel       z-vel      x-accl      y-accl      z-accl      x-coor      y-coor      z-coor
    22626 -1.10732E-03 8.67282E-02-1.70314E-01-8.13137E-04 5.35627E-02-1.06228E-01 1.79325E-03 6.99269E-04-2.00992E-03 4.65827E+00-2.81041E+01-4.51520E+01



 n o d a l   p r i n t   o u t   f o r   t i m e  s t e p    5401                              ( at time 2.6997298E+00 )

 nodal point  x-rot      y-rot       z-rot       x-rot vel   y-rot vel   z-rot vel   x-rot acc   y-rot acc   z-rot acc
    22626 -2.92378E-04-1.62782E-06 5.82375E-07-1.62980E-04 5.43122E-06 3.57181E-06-1.13944E-04 3.55352E-06-1.43062E-05



 n o d a l   p r i n t   o u t   f o r   t i m e  s t e p    5601                              ( at time 2.7997198E+00 )

 nodal point  x-disp     y-disp      z-disp      x-vel       y-vel       z-vel      x-accl      y-accl      z-accl      x-coor      y-coor      z-coor
    22626 -1.19437E-03 9.21214E-02-1.80982E-01-8.83497E-04 5.42764E-02-1.07488E-01-7.03671E-04 7.13726E-03-1.26078E-02 4.65818E+00-2.80987E+01-4.51627E+01



 n o d a l   p r i n t   o u t   f o r   t i m e  s t e p    5601                              ( at time 2.7997198E+00 )

 nodal point  x-rot      y-rot       z-rot       x-rot vel   y-rot vel   z-rot vel   x-rot acc   y-rot acc   z-rot acc
    22626 -3.07868E-04-1.11594E-06 9.99264E-07-1.44833E-04 3.09297E-06 4.34147E-06 1.81483E-04-2.33849E-05 7.69736E-06



 n o d a l   p r i n t   o u t   f o r   t i m e  s t e p    5801                              ( at time 2.8997098E+00 )

 nodal point  x-disp     y-disp      z-disp      x-vel       y-vel       z-vel      x-accl      y-accl      z-accl      x-coor      y-coor      z-coor
    22626 -1.27553E-03 9.75422E-02-1.91832E-01-7.39946E-04 5.41966E-02-1.09469E-01 1.43566E-03-7.98224E-04-1.98073E-02 4.65810E+00-2.80933E+01-4.51736E+01



 n o d a l   p r i n t   o u t   f o r   t i m e  s t e p    5801                              ( at time 2.8997098E+00 )

 nodal point  x-rot      y-rot       z-rot       x-rot vel   y-rot vel   z-rot vel   x-rot acc   y-rot acc   z-rot acc
    22626 -3.21817E-04-9.21978E-07 1.29814E-06-1.39760E-04 5.69575E-07 3.67235E-06 5.07437E-05-2.52365E-05-6.69186E-06



 n o d a l   p r i n t   o u t   f o r   t i m e  s t e p    6001                              ( at time 2.9996998E+00 )

 nodal point  x-disp     y-disp      z-disp      x-vel       y-vel       z-vel      x-accl      y-accl      z-accl      x-coor      y-coor      z-coor
    22626 -1.35909E-03 1.02933E-01-2.02795E-01-7.26142E-04 5.35797E-02-1.09338E-01 1.38051E-04-6.16943E-03 1.30368E-03 4.65802E+00-2.80879E+01-4.51845E+01



 n o d a l   p r i n t   o u t   f o r   t i m e  s t e p    6001                              ( at time 2.9996998E+00 )

 nodal point  x-rot      y-rot       z-rot       x-rot vel   y-rot vel   z-rot vel   x-rot acc   y-rot acc   z-rot acc
    22626 -3.36595E-04-8.83034E-07 1.48087E-06-1.50236E-04 3.67663E-07 2.42810E-06-1.04774E-04-2.01932E-06-1.24437E-05



 n o d a l   p r i n t   o u t   f o r   t i m e  s t e p    6201                              ( at time 3.0996898E+00 )

 nodal point  x-disp     y-disp      z-disp      x-vel       y-vel       z-vel      x-accl      y-accl      z-accl      x-coor      y-coor      z-coor
    22626 -1.42810E-03 1.08285E-01-2.13685E-01-7.50043E-04 5.36971E-02-1.08958E-01-2.39034E-04 1.17403E-03 3.80748E-03 4.65795E+00-2.80825E+01-4.51954E+01



 n o d a l   p r i n t   o u t   f o r   t i m e  s t e p    6201                              ( at time 3.0996898E+00 )

 nodal point  x-rot      y-rot       z-rot       x-rot vel   y-rot vel   z-rot vel   x-rot acc   y-rot acc   z-rot acc
    22626 -3.51631E-04-8.08402E-07 1.74172E-06-1.49603E-04 1.03465E-07 4.43930E-06 6.32927E-06-2.64225E-06 2.01140E-05



 n o d a l   p r i n t   o u t   f o r   t i m e  s t e p    6401                              ( at time 3.1996798E+00 )

 nodal point  x-disp     y-disp      z-disp      x-vel       y-vel       z-vel      x-accl      y-accl      z-accl      x-coor      y-coor      z-coor
    22626 -1.49487E-03 1.13683E-01-2.24673E-01-6.68262E-04 5.43970E-02-1.10977E-01 8.17894E-04 6.99988E-03-2.01907E-02 4.65788E+00-2.80771E+01-4.52064E+01



 n o d a l   p r i n t   o u t   f o r   t i m e  s t e p    6401                              ( at time 3.1996798E+00 )

 nodal point  x-rot      y-rot       z-rot       x-rot vel   y-rot vel   z-rot vel   x-rot acc   y-rot acc   z-rot acc
    22626 -3.66506E-04-6.95404E-07 1.86843E-06-1.43270E-04 1.25602E-06 8.03348E-07 6.33349E-05 1.15267E-05-3.63631E-05



 n o d a l   p r i n t   o u t   f o r   t i m e  s t e p    6601                              ( at time 3.2996698E+00 )

 nodal point  x-disp     y-disp      z-disp      x-vel       y-vel       z-vel      x-accl      y-accl      z-accl      x-coor      y-coor      z-coor
    22626 -1.57599E-03 1.19163E-01-2.35880E-01-8.60732E-04 5.51239E-02-1.12926E-01-1.92490E-03 7.26922E-03-1.94951E-02 4.65780E+00-2.80717E+01-4.52176E+01



 n o d a l   p r i n t   o u t   f o r   t i m e  s t e p    6601                              ( at time 3.2996698E+00 )

 nodal point  x-rot      y-rot       z-rot       x-rot vel   y-rot vel   z-rot vel   x-rot acc   y-rot acc   z-rot acc
    22626 -3.80862E-04-5.53184E-07 2.06870E-06-1.42251E-04 2.13949E-06 2.62656E-06 1.01919E-05 8.83559E-06 1.82340E-05



 n o d a l   p r i n t   o u t   f o r   t i m e  s t e p    6801                              ( at time 3.3996598E+00 )

 nodal point  x-disp     y-disp      z-disp      x-vel       y-vel       z-vel      x-accl      y-accl      z-accl      x-coor      y-coor      z-coor
    22626 -1.65988E-03 1.24723E-01-2.47204E-01-8.88167E-04 5.58785E-02-1.13474E-01-2.74380E-04 7.54666E-03-5.47992E-03 4.65772E+00-2.80661E+01-4.52289E+01



 n o d a l   p r i n t   o u t   f o r   t i m e  s t e p    6801                              ( at time 3.3996598E+00 )

 nodal point  x-rot      y-rot       z-rot       x-rot vel   y-rot vel   z-rot vel   x-rot acc   y-rot acc   z-rot acc
    22626 -3.95179E-04-3.59172E-07 2.51869E-06-1.45558E-04 3.52561E-06 6.90715E-06-3.30702E-05 1.38625E-05 4.28101E-05



 n o d a l   p r i n t   o u t   f o r   t i m e  s t e p    7001                              ( at time 3.4996498E+00 )

 nodal point  x-disp     y-disp      z-disp      x-vel       y-vel       z-vel      x-accl      y-accl      z-accl      x-coor      y-coor      z-coor
    22626 -1.75585E-03 1.30320E-01-2.58499E-01-1.11122E-03 5.62291E-02-1.12375E-01-2.23075E-03 3.50682E-03 1.09921E-02 4.65762E+00-2.80605E+01-4.52402E+01



 n o d a l   p r i n t   o u t   f o r   t i m e  s t e p    7001                              ( at time 3.4996498E+00 )

 nodal point  x-rot      y-rot       z-rot       x-rot vel   y-rot vel   z-rot vel   x-rot acc   y-rot acc   z-rot acc
    22626 -4.10142E-04-1.20849E-07 2.77758E-06-1.52414E-04 1.91674E-06-1.19107E-06-6.85713E-05-1.60903E-05-8.09903E-05



 n o d a l   p r i n t   o u t   f o r   t i m e  s t e p    7201                              ( at time 3.5996397E+00 )

 nodal point  x-disp     y-disp      z-disp      x-vel       y-vel       z-vel      x-accl      y-accl      z-accl      x-coor      y-coor      z-coor
    22626 -1.88297E-03 1.35993E-01-2.69681E-01-1.23770E-03 5.72917E-02-1.11711E-01-1.26495E-03 1.06268E-02 6.63593E-03 4.65749E+00-2.80548E+01-4.52514E+01



 n o d a l   p r i n t   o u t   f o r   t i m e  s t e p    7201                              ( at time 3.5996397E+00 )

 nodal point  x-rot      y-rot       z-rot       x-rot vel   y-rot vel   z-rot vel   x-rot acc   y-rot acc   z-rot acc
    22626 -4.25429E-04 8.79921E-08 2.42403E-06-1.63485E-04 1.73472E-06-6.41199E-06-1.10723E-04-1.82041E-06-5.22145E-05



 n o d a l   p r i n t   o u t   f o r   t i m e  s t e p    7401                              ( at time 3.6996297E+00 )

 nodal point  x-disp     y-disp      z-disp      x-vel       y-vel       z-vel      x-accl      y-accl      z-accl      x-coor      y-coor      z-coor
    22626 -2.00783E-03 1.41819E-01-2.80877E-01-1.19110E-03 5.92973E-02-1.12250E-01 4.66119E-04 2.00586E-02-5.39065E-03 4.65737E+00-2.80490E+01-4.52626E+01



 n o d a l   p r i n t   o u t   f o r   t i m e  s t e p    7401                              ( at time 3.6996297E+00 )

 nodal point  x-rot      y-rot       z-rot       x-rot vel   y-rot vel   z-rot vel   x-rot acc   y-rot acc   z-rot acc
    22626 -4.41842E-04 1.32169E-07 1.70535E-06-1.72053E-04-1.21865E-06-7.67312E-06-8.56815E-05-2.95367E-05-1.26125E-05



 n o d a l   p r i n t   o u t   f o r   t i m e  s t e p    7601                              ( at time 3.7996197E+00 )

 nodal point  x-disp     y-disp      z-disp      x-vel       y-vel       z-vel      x-accl      y-accl      z-accl      x-coor      y-coor      z-coor
    22626 -2.12851E-03 1.47843E-01-2.92081E-01-1.28308E-03 6.13372E-02-1.11728E-01-9.19951E-04 2.04004E-02 5.22294E-03 4.65725E+00-2.80430E+01-4.52738E+01



 n o d a l   p r i n t   o u t   f o r   t i m e  s t e p    7601                              ( at time 3.7996197E+00 )

 nodal point  x-rot      y-rot       z-rot       x-rot vel   y-rot vel   z-rot vel   x-rot acc   y-rot acc   z-rot acc
    22626 -4.59265E-04-2.06283E-07 7.50372E-07-1.90577E-04-6.08055E-06-1.35397E-05-1.85259E-04-4.86239E-05-5.86714E-05



 n o d a l   p r i n t   o u t   f o r   t i m e  s t e p    7801                              ( at time 3.8996097E+00 )

 nodal point  x-disp     y-disp      z-disp      x-vel       y-vel       z-vel      x-accl      y-accl      z-accl      x-coor      y-coor      z-coor
    22626 -2.25354E-03 1.54106E-01-3.03185E-01-1.31371E-03 6.40795E-02-1.10046E-01-3.06332E-04 2.74256E-02 1.68190E-02 4.65712E+00-2.80367E+01-4.52849E+01



 n o d a l   p r i n t   o u t   f o r   t i m e  s t e p    7801                              ( at time 3.8996097E+00 )

 nodal point  x-rot      y-rot       z-rot       x-rot vel   y-rot vel   z-rot vel   x-rot acc   y-rot acc   z-rot acc
    22626 -4.79771E-04-9.26943E-07-6.49407E-07-2.29069E-04-7.33459E-06-1.78893E-05-3.84960E-04-1.25416E-05-4.35004E-05



 n o d a l   p r i n t   o u t   f o r   t i m e  s t e p    8001                              ( at time 3.9995997E+00 )

 nodal point  x-disp     y-disp      z-disp      x-vel       y-vel       z-vel      x-accl      y-accl      z-accl      x-coor      y-coor      z-coor
    22626 -2.38151E-03 1.60677E-01-3.14076E-01-1.33289E-03 6.79083E-02-1.07934E-01-1.91788E-04 3.82921E-02 2.11224E-02 4.65699E+00-2.80302E+01-4.52958E+01



 n o d a l   p r i n t   o u t   f o r   t i m e  s t e p    8001                              ( at time 3.9995997E+00 )

 nodal point  x-rot      y-rot       z-rot       x-rot vel   y-rot vel   z-rot vel   x-rot acc   y-rot acc   z-rot acc
    22626 -5.04212E-04-1.81129E-06-2.76599E-06-2.59810E-04-8.49139E-06-2.15432E-05-3.07446E-04-1.15692E-05-3.65424E-05



 n o d a l   p r i n t   o u t   f o r   t i m e  s t e p    8201                              ( at time 4.0995897E+00 )

 nodal point  x-disp     y-disp      z-disp      x-vel       y-vel       z-vel      x-accl      y-accl      z-accl      x-coor      y-coor      z-coor
    22626 -2.52929E-03 1.67697E-01-3.24852E-01-1.51156E-03 7.26857E-02-1.07685E-01-1.78685E-03 4.77787E-02 2.49522E-03 4.65685E+00-2.80231E+01-4.53066E+01



 n o d a l   p r i n t   o u t   f o r   t i m e  s t e p    8201                              ( at time 4.0995897E+00 )

 nodal point  x-rot      y-rot       z-rot       x-rot vel   y-rot vel   z-rot vel   x-rot acc   y-rot acc   z-rot acc
    22626 -5.31371E-04-2.94523E-06-5.27409E-06-2.93114E-04-1.48098E-05-2.68821E-05-3.33064E-04-6.31903E-05-5.33951E-05



 n o d a l   p r i n t   o u t   f o r   t i m e  s t e p    8401                              ( at time 4.1995797E+00 )

 nodal point  x-disp     y-disp      z-disp      x-vel       y-vel       z-vel      x-accl      y-accl      z-accl      x-coor      y-coor      z-coor
    22626 -2.71087E-03 1.75284E-01-3.35573E-01-2.05869E-03 7.91573E-02-1.06757E-01-5.47189E-03 6.47229E-02 9.27751E-03 4.65666E+00-2.80155E+01-4.53173E+01



 n o d a l   p r i n t   o u t   f o r   t i m e  s t e p    8401                              ( at time 4.1995797E+00 )

 nodal point  x-rot      y-rot       z-rot       x-rot vel   y-rot vel   z-rot vel   x-rot acc   y-rot acc   z-rot acc
    22626 -5.63223E-04-4.65664E-06-8.51507E-06-3.48026E-04-1.89579E-05-3.63762E-05-5.49176E-04-4.14855E-05-9.49503E-05



 n o d a l   p r i n t   o u t   f o r   t i m e  s t e p    8601                              ( at time 4.2995697E+00 )

 nodal point  x-disp     y-disp      z-disp      x-vel       y-vel       z-vel      x-accl      y-accl      z-accl      x-coor      y-coor      z-coor
    22626 -2.94866E-03 1.83550E-01-3.46187E-01-2.64405E-03 8.60401E-02-1.05330E-01-5.85418E-03 6.88347E-02 1.42764E-02 4.65643E+00-2.80073E+01-4.53279E+01



 n o d a l   p r i n t   o u t   f o r   t i m e  s t e p    8601                              ( at time 4.2995697E+00 )

 nodal point  x-rot      y-rot       z-rot       x-rot vel   y-rot vel   z-rot vel   x-rot acc   y-rot acc   z-rot acc
    22626 -6.00370E-04-6.61620E-06-1.25409E-05-3.95793E-04-1.97034E-05-4.24336E-05-4.77724E-04-7.45521E-06-6.05799E-05



 n o d a l   p r i n t   o u t   f o r   t i m e  s t e p    8801                              ( at time 4.3995597E+00 )

 nodal point  x-disp     y-disp      z-disp      x-vel       y-vel       z-vel      x-accl      y-accl      z-accl      x-coor      y-coor      z-coor
    22626 -3.20532E-03 1.92509E-01-3.56592E-01-2.40960E-03 9.32601E-02-1.02705E-01 2.34473E-03 7.22074E-02 2.62489E-02 4.65617E+00-2.79983E+01-4.53383E+01



 n o d a l   p r i n t   o u t   f o r   t i m e  s t e p    8801                              ( at time 4.3995597E+00 )

 nodal point  x-rot      y-rot       z-rot       x-rot vel   y-rot vel   z-rot vel   x-rot acc   y-rot acc   z-rot acc
    22626 -6.43374E-04-8.30856E-06-1.64232E-05-4.64010E-04-1.45309E-05-3.71614E-05-6.82241E-04 5.17300E-05 5.27269E-05



 n o d a l   p r i n t   o u t   f o r   t i m e  s t e p    9001                              ( at time 4.4995497E+00 )

 nodal point  x-disp     y-disp      z-disp      x-vel       y-vel       z-vel      x-accl      y-accl      z-accl      x-coor      y-coor      z-coor
    22626 -3.44608E-03 2.02290E-01-3.66804E-01-2.41175E-03 1.02646E-01-1.02026E-01-2.15017E-05 9.38636E-02 6.78851E-03 4.65593E+00-2.79885E+01-4.53485E+01



 n o d a l   p r i n t   o u t   f o r   t i m e  s t e p    9001                              ( at time 4.4995497E+00 )

 nodal point  x-rot      y-rot       z-rot       x-rot vel   y-rot vel   z-rot vel   x-rot acc   y-rot acc   z-rot acc
    22626 -6.93854E-04-9.85960E-06-2.00786E-05-5.41020E-04-1.61039E-05-3.73367E-05-7.70168E-04-1.57320E-05-1.75295E-06



 n o d a l   p r i n t   o u t   f o r   t i m e  s t e p    9201                              ( at time 4.5995397E+00 )

 nodal point  x-disp     y-disp      z-disp      x-vel       y-vel       z-vel      x-accl      y-accl      z-accl      x-coor      y-coor      z-coor
    22626 -3.70257E-03 2.13109E-01-3.77000E-01-2.80448E-03 1.13557E-01-1.01860E-01-3.92768E-03 1.09125E-01 1.66209E-03 4.65567E+00-2.79777E+01-4.53587E+01



 n o d a l   p r i n t   o u t   f o r   t i m e  s t e p    9201                              ( at time 4.5995397E+00 )

 nodal point  x-rot      y-rot       z-rot       x-rot vel   y-rot vel   z-rot vel   x-rot acc   y-rot acc   z-rot acc
    22626 -7.51677E-04-1.17615E-05-2.38475E-05-6.16645E-04-2.31626E-05-4.22059E-05-7.56325E-04-7.05936E-05-4.86967E-05



 n o d a l   p r i n t   o u t   f o r   t i m e  s t e p    9401                              ( at time 4.6995297E+00 )

 nodal point  x-disp     y-disp      z-disp      x-vel       y-vel       z-vel      x-accl      y-accl      z-accl      x-coor      y-coor      z-coor
    22626 -3.99554E-03 2.25001E-01-3.87094E-01-3.08740E-03 1.24689E-01-1.00423E-01-2.82947E-03 1.11335E-01 1.43669E-02 4.65538E+00-2.79658E+01-4.53688E+01



 n o d a l   p r i n t   o u t   f o r   t i m e  s t e p    9401                              ( at time 4.6995297E+00 )

 nodal point  x-rot      y-rot       z-rot       x-rot vel   y-rot vel   z-rot vel   x-rot acc   y-rot acc   z-rot acc
    22626 -8.17951E-04-1.42588E-05-2.85903E-05-7.13888E-04-2.67939E-05-4.97350E-05-9.72538E-04-3.63166E-05-7.52987E-05



 n o d a l   p r i n t   o u t   f o r   t i m e  s t e p    9601                              ( at time 4.7995197E+00 )

 nodal point  x-disp     y-disp      z-disp      x-vel       y-vel       z-vel      x-accl      y-accl      z-accl      x-coor      y-coor      z-coor
    22626 -4.26491E-03 2.38085E-01-3.97057E-01-2.25763E-03 1.37323E-01-9.88190E-02 8.29852E-03 1.26354E-01 1.60450E-02 4.65511E+00-2.79527E+01-4.53788E+01



 n o d a l   p r i n t   o u t   f o r   t i m e  s t e p    9601                              ( at time 4.7995197E+00 )

 nodal point  x-rot      y-rot       z-rot       x-rot vel   y-rot vel   z-rot vel   x-rot acc   y-rot acc   z-rot acc
    22626 -8.94222E-04-1.64626E-05-3.29055E-05-8.14375E-04-1.81609E-05-3.62525E-05-1.00497E-03 8.63387E-05 1.34838E-04



 n o d a l   p r i n t   o u t   f o r   t i m e  s t e p    9801                              ( at time 4.8995097E+00 )

 nodal point  x-disp     y-disp      z-disp      x-vel       y-vel       z-vel      x-accl      y-accl      z-accl      x-coor      y-coor      z-coor
    22626 -4.51453E-03 2.52480E-01-4.06829E-01-2.91205E-03 1.50711E-01-9.66856E-02-6.54490E-03 1.33893E-01 2.13361E-02 4.65486E+00-2.79384E+01-4.53885E+01



 n o d a l   p r i n t   o u t   f o r   t i m e  s t e p    9801                              ( at time 4.8995097E+00 )

 nodal point  x-rot      y-rot       z-rot       x-rot vel   y-rot vel   z-rot vel   x-rot acc   y-rot acc   z-rot acc
    22626 -9.80431E-04-1.91650E-05-3.73703E-05-9.06710E-04-3.34185E-05-5.37869E-05-9.23443E-04-1.52592E-04-1.75361E-04



 n o d a l   p r i n t   o u t   f o r   t i m e  s t e p   10001                              ( at time 4.9994997E+00 )

 nodal point  x-disp     y-disp      z-disp      x-vel       y-vel       z-vel      x-accl      y-accl      z-accl      x-coor      y-coor      z-coor
    22626 -4.85074E-03 2.68223E-01-4.16473E-01-3.55502E-03 1.64986E-01-9.63996E-02-6.43026E-03 1.42763E-01 2.86063E-03 4.65452E+00-2.79226E+01-4.53982E+01



 n o d a l   p r i n t   o u t   f o r   t i m e  s t e p   10001                              ( at time 4.9994997E+00 )

 nodal point  x-rot      y-rot       z-rot       x-rot vel   y-rot vel   z-rot vel   x-rot acc   y-rot acc   z-rot acc
    22626 -1.07658E-03-2.26733E-05-4.32970E-05-1.01418E-03-3.09458E-05-5.38462E-05-1.07477E-03 2.47289E-05-5.93448E-07



 n o d a l   p r i n t   o u t   f o r   t i m e  s t e p   10202                              ( at time 5.0999896E+00 )

 nodal point  x-disp     y-disp      z-disp      x-vel       y-vel       z-vel      x-accl      y-accl      z-accl      x-coor      y-coor      z-coor
    22626 -5.17907E-03 2.85585E-01-4.26180E-01-2.98274E-03 1.80372E-01-9.57928E-02 5.69485E-03 1.53108E-01 6.03834E-03 4.65420E+00-2.79052E+01-4.54079E+01



 n o d a l   p r i n t   o u t   f o r   t i m e  s t e p   10202                              ( at time 5.0999896E+00 )

 nodal point  x-rot      y-rot       z-rot       x-rot vel   y-rot vel   z-rot vel   x-rot acc   y-rot acc   z-rot acc
    22626 -1.18502E-03-2.53383E-05-4.83011E-05-1.13236E-03-2.63137E-05-4.76379E-05-1.17610E-03 4.60956E-05 6.17803E-05



 n o d a l   p r i n t   o u t   f o r   t i m e  s t e p   10402                              ( at time 5.1999796E+00 )

 nodal point  x-disp     y-disp      z-disp      x-vel       y-vel       z-vel      x-accl      y-accl      z-accl      x-coor      y-coor      z-coor
    22626 -5.49706E-03 3.04342E-01-4.35666E-01-3.57407E-03 1.95069E-01-9.34139E-02-5.91383E-03 1.46985E-01 2.37920E-02 4.65388E+00-2.78865E+01-4.54174E+01



 n o d a l   p r i n t   o u t   f o r   t i m e  s t e p   10402                              ( at time 5.1999796E+00 )

 nodal point  x-rot      y-rot       z-rot       x-rot vel   y-rot vel   z-rot vel   x-rot acc   y-rot acc   z-rot acc
    22626 -1.30459E-03-2.81438E-05-5.28497E-05-1.25429E-03-2.91795E-05-4.44513E-05-1.21943E-03-2.86602E-05 3.18694E-05



 n o d a l   p r i n t   o u t   f o r   t i m e  s t e p   10602                              ( at time 5.2999696E+00 )

 nodal point  x-disp     y-disp      z-disp      x-vel       y-vel       z-vel      x-accl      y-accl      z-accl      x-coor      y-coor      z-coor
    22626 -5.87317E-03 3.24603E-01-4.44943E-01-3.89596E-03 2.10952E-01-9.25160E-02-3.21922E-03 1.58843E-01 8.97945E-03 4.65350E+00-2.78662E+01-4.54267E+01



 n o d a l   p r i n t   o u t   f o r   t i m e  s t e p   10602                              ( at time 5.2999696E+00 )

 nodal point  x-rot      y-rot       z-rot       x-rot vel   y-rot vel   z-rot vel   x-rot acc   y-rot acc   z-rot acc
    22626 -1.43583E-03-3.12396E-05-5.79730E-05-1.37709E-03-2.96776E-05-5.19940E-05-1.22808E-03-4.98179E-06-7.54349E-05



 n o d a l   p r i n t   o u t   f o r   t i m e  s t e p   10802                              ( at time 5.3999596E+00 )

 nodal point  x-disp     y-disp      z-disp      x-vel       y-vel       z-vel      x-accl      y-accl      z-accl      x-coor      y-coor      z-coor
    22626 -6.29106E-03 3.46537E-01-4.54146E-01-3.99306E-03 2.27285E-01-9.13602E-02-9.71079E-04 1.63349E-01 1.15594E-02 4.65308E+00-2.78443E+01-4.54359E+01



 n o d a l   p r i n t   o u t   f o r   t i m e  s t e p   10802                              ( at time 5.3999596E+00 )

 nodal point  x-rot      y-rot       z-rot       x-rot vel   y-rot vel   z-rot vel   x-rot acc   y-rot acc   z-rot acc
    22626 -1.57933E-03-3.41658E-05-6.32925E-05-1.50070E-03-1.96001E-05-4.62948E-05-1.23621E-03 1.00785E-04 5.69981E-05



 n o d a l   p r i n t   o u t   f o r   t i m e  s t e p   11002                              ( at time 5.4999496E+00 )

 nodal point  x-disp     y-disp      z-disp      x-vel       y-vel       z-vel      x-accl      y-accl      z-accl      x-coor      y-coor      z-coor
    22626 -6.65680E-03 3.70077E-01-4.63180E-01-3.47854E-03 2.44017E-01-8.94001E-02 5.14567E-03 1.67337E-01 1.96022E-02 4.65272E+00-2.78208E+01-4.54449E+01



 n o d a l   p r i n t   o u t   f o r   t i m e  s t e p   11002                              ( at time 5.4999496E+00 )

 nodal point  x-rot      y-rot       z-rot       x-rot vel   y-rot vel   z-rot vel   x-rot acc   y-rot acc   z-rot acc
    22626 -1.73517E-03-3.64504E-05-6.75726E-05-1.62837E-03-2.96060E-05-3.94647E-05-1.27680E-03-1.00069E-04 6.83078E-05



 n o d a l   p r i n t   o u t   f o r   t i m e  s t e p   11202                              ( at time 5.5999396E+00 )

 nodal point  x-disp     y-disp      z-disp      x-vel       y-vel       z-vel      x-accl      y-accl      z-accl      x-coor      y-coor      z-coor
    22626 -7.01665E-03 3.95334E-01-4.72009E-01-4.29302E-03 2.61251E-01-8.67630E-02-8.14561E-03 1.72358E-01 2.63739E-02 4.65236E+00-2.77955E+01-4.54537E+01



 n o d a l   p r i n t   o u t   f o r   t i m e  s t e p   11202                              ( at time 5.5999396E+00 )

 nodal point  x-rot      y-rot       z-rot       x-rot vel   y-rot vel   z-rot vel   x-rot acc   y-rot acc   z-rot acc
    22626 -1.90426E-03-3.97640E-05-7.21226E-05-1.75860E-03-3.70196E-05-5.11498E-05-1.30252E-03-7.41426E-05-1.16863E-04



 n o d a l   p r i n t   o u t   f o r   t i m e  s t e p   11402                              ( at time 5.6999296E+00 )

 nodal point  x-disp     y-disp      z-disp      x-vel       y-vel       z-vel      x-accl      y-accl      z-accl      x-coor      y-coor      z-coor
    22626 -7.44339E-03 4.22301E-01-4.80531E-01-3.69207E-03 2.78293E-01-8.34031E-02 6.01013E-03 1.70431E-01 3.36021E-02 4.65193E+00-2.77685E+01-4.54622E+01



 n o d a l   p r i n t   o u t   f o r   t i m e  s t e p   11402                              ( at time 5.6999296E+00 )

 nodal point  x-rot      y-rot       z-rot       x-rot vel   y-rot vel   z-rot vel   x-rot acc   y-rot acc   z-rot acc
    22626 -2.08651E-03-4.30504E-05-7.72150E-05-1.88682E-03-2.60334E-05-4.78250E-05-1.28226E-03 1.09873E-04 3.32511E-05



 n o d a l   p r i n t   o u t   f o r   t i m e  s t e p   11602                              ( at time 5.7999195E+00 )

 nodal point  x-disp     y-disp      z-disp      x-vel       y-vel       z-vel      x-accl      y-accl      z-accl      x-coor      y-coor      z-coor
    22626 -7.78009E-03 4.51022E-01-4.88697E-01-2.93001E-03 2.96625E-01-8.02466E-02 7.62131E-03 1.83338E-01 3.15684E-02 4.65160E+00-2.77398E+01-4.54704E+01



 n o d a l   p r i n t   o u t   f o r   t i m e  s t e p   11602                              ( at time 5.7999195E+00 )

 nodal point  x-rot      y-rot       z-rot       x-rot vel   y-rot vel   z-rot vel   x-rot acc   y-rot acc   z-rot acc
    22626 -2.28125E-03-4.50594E-05-8.08741E-05-2.01832E-03-1.67060E-05-2.43936E-05-1.31518E-03 9.32826E-05 2.34338E-04



 n o d a l   p r i n t   o u t   f o r   t i m e  s t e p   11802                              ( at time 5.8999095E+00 )

 nodal point  x-disp     y-disp      z-disp      x-vel       y-vel       z-vel      x-accl      y-accl      z-accl      x-coor      y-coor      z-coor
    22626 -8.08254E-03 4.81640E-01-4.96627E-01-3.54967E-03 3.15140E-01-7.82030E-02-6.19722E-03 1.85170E-01 2.04386E-02 4.65129E+00-2.77092E+01-4.54783E+01



 n o d a l   p r i n t   o u t   f o r   t i m e  s t e p   11802                              ( at time 5.8999095E+00 )

 nodal point  x-rot      y-rot       z-rot       x-rot vel   y-rot vel   z-rot vel   x-rot acc   y-rot acc   z-rot acc
    22626 -2.49029E-03-4.74268E-05-8.41827E-05-2.17138E-03-3.65426E-05-4.35821E-05-1.53070E-03-1.98385E-04-1.91904E-04



 n o d a l   p r i n t   o u t   f o r   t i m e  s t e p   12002                              ( at time 5.9998995E+00 )

 nodal point  x-disp     y-disp      z-disp      x-vel       y-vel       z-vel      x-accl      y-accl      z-accl      x-coor      y-coor      z-coor
    22626 -8.49359E-03 5.14046E-01-5.04244E-01-4.18366E-03 3.33418E-01-7.42148E-02-6.34050E-03 1.82797E-01 3.98860E-02 4.65088E+00-2.76768E+01-4.54860E+01



 n o d a l   p r i n t   o u t   f o r   t i m e  s t e p   12002                              ( at time 5.9998995E+00 )

 nodal point  x-rot      y-rot       z-rot       x-rot vel   y-rot vel   z-rot vel   x-rot acc   y-rot acc   z-rot acc
    22626 -2.71381E-03-5.11406E-05-8.90561E-05-2.30571E-03-3.21861E-05-5.11306E-05-1.34345E-03 4.35691E-05-7.54932E-05



 n o d a l   p r i n t   o u t   f o r   t i m e  s t e p   12202                              ( at time 6.0998895E+00 )

 nodal point  x-disp     y-disp      z-disp      x-vel       y-vel       z-vel      x-accl      y-accl      z-accl      x-coor      y-coor      z-coor
    22626 -8.86389E-03 5.48396E-01-5.11510E-01-3.06296E-03 3.53350E-01-7.09878E-02 1.12080E-02 1.99345E-01 3.22723E-02 4.65051E+00-2.76424E+01-4.54932E+01



 n o d a l   p r i n t   o u t   f o r   t i m e  s t e p   12202                              ( at time 6.0998895E+00 )

 nodal point  x-rot      y-rot       z-rot       x-rot vel   y-rot vel   z-rot vel   x-rot acc   y-rot acc   z-rot acc
    22626 -2.95178E-03-5.27399E-05-9.23609E-05-2.45435E-03-4.03674E-06-1.65080E-05-1.48658E-03 2.81521E-04 3.46259E-04



 n o d a l   p r i n t   o u t   f o r   t i m e  s t e p   12402                              ( at time 6.1998795E+00 )

 nodal point  x-disp     y-disp      z-disp      x-vel       y-vel       z-vel      x-accl      y-accl      z-accl      x-coor      y-coor      z-coor
    22626 -9.11133E-03 5.84705E-01-5.18441E-01-2.40137E-03 3.72868E-01-6.75074E-02 6.61655E-03 1.95198E-01 3.48077E-02 4.65026E+00-2.76061E+01-4.55002E+01



 n o d a l   p r i n t   o u t   f o r   t i m e  s t e p   12402                              ( at time 6.1998795E+00 )

 nodal point  x-rot      y-rot       z-rot       x-rot vel   y-rot vel   z-rot vel   x-rot acc   y-rot acc   z-rot acc
    22626 -3.20440E-03-5.32111E-05-9.40266E-05-2.59949E-03-1.43574E-05-1.90664E-05-1.45158E-03-1.03217E-04-2.55857E-05



 n o d a l   p r i n t   o u t   f o r   t i m e  s t e p   12602                              ( at time 6.2998695E+00 )

 nodal point  x-disp     y-disp      z-disp      x-vel       y-vel       z-vel      x-accl      y-accl      z-accl      x-coor      y-coor      z-coor
    22626 -9.44461E-03 6.23022E-01-5.25017E-01-3.93008E-03 3.93129E-01-6.42402E-02-1.52886E-02 2.02628E-01 3.26759E-02 4.64993E+00-2.75678E+01-4.55067E+01



 n o d a l   p r i n t   o u t   f o r   t i m e  s t e p   12602                              ( at time 6.2998695E+00 )

 nodal point  x-rot      y-rot       z-rot       x-rot vel   y-rot vel   z-rot vel   x-rot acc   y-rot acc   z-rot acc
    22626 -3.47181E-03-5.58091E-05-9.67712E-05-2.75108E-03-2.36162E-05-3.48963E-05-1.51600E-03-9.25976E-05-1.58315E-04



 n o d a l   p r i n t   o u t   f o r   t i m e  s t e p   12802                              ( at time 6.3998595E+00 )

 nodal point  x-disp     y-disp      z-disp      x-vel       y-vel       z-vel      x-accl      y-accl      z-accl      x-coor      y-coor      z-coor
    22626 -9.82621E-03 6.63348E-01-5.31243E-01-3.17562E-03 4.13161E-01-6.01524E-02 7.54540E-03 2.00347E-01 4.08820E-02 4.64955E+00-2.75275E+01-4.55130E+01



 n o d a l   p r i n t   o u t   f o r   t i m e  s t e p   12802                              ( at time 6.3998595E+00 )

 nodal point  x-rot      y-rot       z-rot       x-rot vel   y-rot vel   z-rot vel   x-rot acc   y-rot acc   z-rot acc
    22626 -3.75429E-03-5.70207E-05-9.94651E-05-2.90029E-03-2.95281E-06-1.53117E-05-1.49221E-03 2.06655E-04 1.95866E-04



 n o d a l   p r i n t   o u t   f o r   t i m e  s t e p   13002                              ( at time 6.4998495E+00 )

 nodal point  x-disp     y-disp      z-disp      x-vel       y-vel       z-vel      x-accl      y-accl      z-accl      x-coor      y-coor      z-coor
    22626 -1.00211E-02 7.05661E-01-5.36964E-01-1.71311E-03 4.32821E-01-5.44061E-02 1.46266E-02 1.96611E-01 5.74683E-02 4.64935E+00-2.74852E+01-4.55187E+01



 n o d a l   p r i n t   o u t   f o r   t i m e  s t e p   13002                              ( at time 6.4998495E+00 )

 nodal point  x-rot      y-rot       z-rot       x-rot vel   y-rot vel   z-rot vel   x-rot acc   y-rot acc   z-rot acc
    22626 -4.05175E-03-5.67763E-05-1.00322E-04-3.05746E-03 1.82367E-06-3.19768E-06-1.57190E-03 4.77696E-05 1.21152E-04



 n o d a l   p r i n t   o u t   f o r   t i m e  s t e p   13202                              ( at time 6.5998395E+00 )

 nodal point  x-disp     y-disp      z-disp      x-vel       y-vel       z-vel      x-accl      y-accl      z-accl      x-coor      y-coor      z-coor
    22626 -1.02362E-02 7.49923E-01-5.42071E-01-2.32296E-03 4.52468E-01-4.81787E-02-6.09908E-03 1.96492E-01 6.22801E-02 4.64914E+00-2.74409E+01-4.55238E+01



 n o d a l   p r i n t   o u t   f o r   t i m e  s t e p   13202                              ( at time 6.5998395E+00 )

 nodal point  x-rot      y-rot       z-rot       x-rot vel   y-rot vel   z-rot vel   x-rot acc   y-rot acc   z-rot acc
    22626 -4.36500E-03-5.77697E-05-1.01080E-04-3.20740E-03-1.52113E-05-1.85506E-05-1.49955E-03-1.70366E-04-1.53544E-04



 n o d a l   p r i n t   o u t   f o r   t i m e  s t e p   13402                              ( at time 6.6998295E+00 )

 nodal point  x-disp     y-disp      z-disp      x-vel       y-vel       z-vel      x-accl      y-accl      z-accl      x-coor      y-coor      z-coor
    22626 -1.04938E-02 7.96228E-01-5.46628E-01-2.48511E-03 4.73201E-01-4.30423E-02-1.62165E-03 2.07350E-01 5.13698E-02 4.64888E+00-2.73946E+01-4.55283E+01



 n o d a l   p r i n t   o u t   f o r   t i m e  s t e p   13402                              ( at time 6.6998295E+00 )

 nodal point  x-rot      y-rot       z-rot       x-rot vel   y-rot vel   z-rot vel   x-rot acc   y-rot acc   z-rot acc
    22626 -4.69291E-03-5.86441E-05-1.02471E-04-3.35587E-03 2.24153E-06-5.50559E-06-1.48485E-03 1.74546E-04 1.30463E-04



 n o d a l   p r i n t   o u t   f o r   t i m e  s t e p   13602                              ( at time 6.7998195E+00 )

 nodal point  x-disp     y-disp      z-disp      x-vel       y-vel       z-vel      x-accl      y-accl      z-accl      x-coor      y-coor      z-coor
    22626 -1.06424E-02 8.44539E-01-5.50605E-01-9.89984E-04 4.92741E-01-3.64811E-02 1.49528E-02 1.95418E-01 6.56182E-02 4.64873E+00-2.73463E+01-4.55323E+01



 n o d a l   p r i n t   o u t   f o r   t i m e  s t e p   13602                              ( at time 6.7998195E+00 )

 nodal point  x-rot      y-rot       z-rot       x-rot vel   y-rot vel   z-rot vel   x-rot acc   y-rot acc   z-rot acc
    22626 -5.03690E-03-5.76650E-05-1.02578E-04-3.52640E-03 6.53999E-06 2.94116E-06-1.70549E-03 4.29890E-05 8.44761E-05



 n o d a l   p r i n t   o u t   f o r   t i m e  s t e p   13802                              ( at time 6.8998095E+00 )

 nodal point  x-disp     y-disp      z-disp      x-vel       y-vel       z-vel      x-accl      y-accl      z-accl      x-coor      y-coor      z-coor
    22626 -1.07600E-02 8.94867E-01-5.53926E-01-1.40603E-03 5.13845E-01-2.97273E-02-4.16088E-03 2.11069E-01 6.75445E-02 4.64861E+00-2.72960E+01-4.55356E+01



 n o d a l   p r i n t   o u t   f o r   t i m e  s t e p   13802                              ( at time 6.8998095E+00 )

 nodal point  x-rot      y-rot       z-rot       x-rot vel   y-rot vel   z-rot vel   x-rot acc   y-rot acc   z-rot acc
    22626 -5.39758E-03-5.75682E-05-1.02129E-04-3.68201E-03-1.53277E-06 3.64396E-06-1.55627E-03-8.07358E-05 7.02872E-06



 n o d a l   p r i n t   o u t   f o r   t i m e  s t e p   14002                              ( at time 6.9997995E+00 )

 nodal point  x-disp     y-disp      z-disp      x-vel       y-vel       z-vel      x-accl      y-accl      z-accl      x-coor      y-coor      z-coor
    22626 -1.09105E-02 9.47255E-01-5.56519E-01-1.64933E-03 5.33885E-01-2.19780E-02-2.43320E-03 2.00412E-01 7.75015E-02 4.64846E+00-2.72436E+01-4.55382E+01



 n o d a l   p r i n t   o u t   f o r   t i m e  s t e p   14002                              ( at time 6.9997995E+00 )

 nodal point  x-rot      y-rot       z-rot       x-rot vel   y-rot vel   z-rot vel   x-rot acc   y-rot acc   z-rot acc
    22626 -5.77384E-03-5.71921E-05-1.01820E-04-3.84176E-03 6.41477E-06 5.94280E-06-1.59767E-03 7.94834E-05 2.29907E-05



 n o d a l   p r i n t   o u t   f o r   t i m e  s t e p   14202                              ( at time 7.0997895E+00 )

 nodal point  x-disp     y-disp      z-disp      x-vel       y-vel       z-vel      x-accl      y-accl      z-accl      x-coor      y-coor      z-coor
    22626 -1.10280E-02 1.00166E+00-5.58349E-01-7.88552E-04 5.54529E-01-1.46785E-02 8.60856E-03 2.06462E-01 7.30014E-02 4.64835E+00-2.71892E+01-4.55401E+01



 n o d a l   p r i n t   o u t   f o r   t i m e  s t e p   14202                              ( at time 7.0997895E+00 )

 nodal point  x-rot      y-rot       z-rot       x-rot vel   y-rot vel   z-rot vel   x-rot acc   y-rot acc   z-rot acc
    22626 -6.16621E-03-5.58203E-05-1.00896E-04-4.00525E-03 2.00730E-05 1.43507E-05-1.63506E-03 1.36595E-04 8.40872E-05



 n o d a l   p r i n t   o u t   f o r   t i m e  s t e p   14402                              ( at time 7.1997794E+00 )

 nodal point  x-disp     y-disp      z-disp      x-vel       y-vel       z-vel      x-accl      y-accl      z-accl      x-coor      y-coor      z-coor
    22626 -1.11132E-02 1.05814E+00-5.59394E-01-5.89839E-04 5.74829E-01-5.73036E-03 1.98733E-03 2.03023E-01 8.94908E-02 4.64826E+00-2.71327E+01-4.55411E+01



 n o d a l   p r i n t   o u t   f o r   t i m e  s t e p   14402                              ( at time 7.1997794E+00 )

 nodal point  x-rot      y-rot       z-rot       x-rot vel   y-rot vel   z-rot vel   x-rot acc   y-rot acc   z-rot acc
    22626 -6.57538E-03-5.40290E-05-9.91711E-05-4.17083E-03 1.74309E-05 1.37506E-05-1.65597E-03-2.64231E-05-6.00171E-06



 n o d a l   p r i n t   o u t   f o r   t i m e  s t e p   14602                              ( at time 7.2997694E+00 )

 nodal point  x-disp     y-disp      z-disp      x-vel       y-vel       z-vel      x-accl      y-accl      z-accl      x-coor      y-coor      z-coor
    22626 -1.11846E-02 1.11662E+00-5.59506E-01-1.06077E-03 5.94890E-01 3.97363E-03-4.70975E-03 2.00630E-01 9.70497E-02 4.64819E+00-2.70742E+01-4.55412E+01



 n o d a l   p r i n t   o u t   f o r   t i m e  s t e p   14602                              ( at time 7.2997694E+00 )

 nodal point  x-rot      y-rot       z-rot       x-rot vel   y-rot vel   z-rot vel   x-rot acc   y-rot acc   z-rot acc
    22626 -7.00129E-03-5.29141E-05-9.79237E-05-4.34240E-03 7.27734E-06 1.77801E-05-1.71584E-03-1.01546E-04 4.02995E-05



 n o d a l   p r i n t   o u t   f o r   t i m e  s t e p   14802                              ( at time 7.3997594E+00 )

 nodal point  x-disp     y-disp      z-disp      x-vel       y-vel       z-vel      x-accl      y-accl      z-accl      x-coor      y-coor      z-coor
    22626 -1.12746E-02 1.17709E+00-5.58550E-01-5.87536E-04 6.14576E-01 1.51595E-02 4.73278E-03 1.96877E-01 1.11870E-01 4.64810E+00-2.70137E+01-4.55403E+01



 n o d a l   p r i n t   o u t   f o r   t i m e  s t e p   14802                              ( at time 7.3997594E+00 )

 nodal point  x-rot      y-rot       z-rot       x-rot vel   y-rot vel   z-rot vel   x-rot acc   y-rot acc   z-rot acc
    22626 -7.44405E-03-5.13286E-05-9.62296E-05-4.51565E-03 2.55928E-05 1.80620E-05-1.73271E-03 1.83173E-04 2.81932E-06



 n o d a l   p r i n t   o u t   f o r   t i m e  s t e p   15002                              ( at time 7.4997494E+00 )

 nodal point  x-disp     y-disp      z-disp      x-vel       y-vel       z-vel      x-accl      y-accl      z-accl      x-coor      y-coor      z-coor
    22626 -1.13041E-02 1.23954E+00-5.56483E-01 2.34175E-04 6.34425E-01 2.57174E-02 8.21791E-03 1.98509E-01 1.05589E-01 4.64807E+00-2.69513E+01-4.55382E+01



 n o d a l   p r i n t   o u t   f o r   t i m e  s t e p   15002                              ( at time 7.4997494E+00 )

 nodal point  x-rot      y-rot       z-rot       x-rot vel   y-rot vel   z-rot vel   x-rot acc   y-rot acc   z-rot acc
    22626 -7.90358E-03-4.93242E-05-9.48140E-05-4.68125E-03 1.57306E-05 1.46459E-05-1.65609E-03-9.86311E-05-3.41643E-05



 n o d a l   p r i n t   o u t   f o r   t i m e  s t e p   15202                              ( at time 7.5997394E+00 )

 nodal point  x-disp     y-disp      z-disp      x-vel       y-vel       z-vel      x-accl      y-accl      z-accl      x-coor      y-coor      z-coor
    22626 -1.12819E-02 1.30397E+00-5.53325E-01 1.79124E-04 6.54254E-01 3.78262E-02-5.50565E-04 1.98313E-01 1.21101E-01 4.64809E+00-2.68869E+01-4.55350E+01



 n o d a l   p r i n t   o u t   f o r   t i m e  s t e p   15202                              ( at time 7.5997394E+00 )

 nodal point  x-rot      y-rot       z-rot       x-rot vel   y-rot vel   z-rot vel   x-rot acc   y-rot acc   z-rot acc
    22626 -8.38011E-03-4.74173E-05-9.28044E-05-4.85229E-03 2.15859E-05 2.59034E-05-1.71059E-03 5.85586E-05 1.12586E-04



 n o d a l   p r i n t   o u t   f o r   t i m e  s t e p   15402                              ( at time 7.6997294E+00 )

 nodal point  x-disp     y-disp      z-disp      x-vel       y-vel       z-vel      x-accl      y-accl      z-accl      x-coor      y-coor      z-coor
    22626 -1.12607E-02 1.37035E+00-5.48966E-01 4.99582E-04 6.73727E-01 4.95653E-02 3.20490E-03 1.94749E-01 1.17402E-01 4.64811E+00-2.68205E+01-4.55307E+01



 n o d a l   p r i n t   o u t   f o r   t i m e  s t e p   15402                              ( at time 7.6997294E+00 )

 nodal point  x-rot      y-rot       z-rot       x-rot vel   y-rot vel   z-rot vel   x-rot acc   y-rot acc   z-rot acc
    22626 -8.87466E-03-4.56040E-05-9.05211E-05-5.02878E-03 1.61969E-05 1.90608E-05-1.76513E-03-5.38958E-05-6.84327E-05



 n o d a l   p r i n t   o u t   f o r   t i m e  s t e p   15602                              ( at time 7.7997194E+00 )

 nodal point  x-disp     y-disp      z-disp      x-vel       y-vel       z-vel      x-accl      y-accl      z-accl      x-coor      y-coor      z-coor
    22626 -1.11846E-02 1.43868E+00-5.43387E-01 1.00287E-03 6.93083E-01 6.25810E-02 5.03337E-03 1.93580E-01 1.30170E-01 4.64819E+00-2.67521E+01-4.55251E+01



 n o d a l   p r i n t   o u t   f o r   t i m e  s t e p   15602                              ( at time 7.7997194E+00 )

 nodal point  x-rot      y-rot       z-rot       x-rot vel   y-rot vel   z-rot vel   x-rot acc   y-rot acc   z-rot acc
    22626 -9.38638E-03-4.34614E-05-8.81021E-05-5.20039E-03 2.63922E-05 3.22088E-05-1.71629E-03 1.01963E-04 1.31494E-04



 n o d a l   p r i n t   o u t   f o r   t i m e  s t e p   15802                              ( at time 7.8997094E+00 )

 nodal point  x-disp     y-disp      z-disp      x-vel       y-vel       z-vel      x-accl      y-accl      z-accl      x-coor      y-coor      z-coor
    22626 -1.10391E-02 1.50898E+00-5.36443E-01 1.56757E-03 7.12674E-01 7.63752E-02 5.64760E-03 1.95925E-01 1.37956E-01 4.64834E+00-2.66819E+01-4.55182E+01



 n o d a l   p r i n t   o u t   f o r   t i m e  s t e p   15802                              ( at time 7.8997094E+00 )

 nodal point  x-rot      y-rot       z-rot       x-rot vel   y-rot vel   z-rot vel   x-rot acc   y-rot acc   z-rot acc
    22626 -9.91562E-03-4.03404E-05-8.48880E-05-5.37431E-03 2.83333E-05 2.65993E-05-1.73929E-03 1.94130E-05-5.61007E-05



 n o d a l   p r i n t   o u t   f o r   t i m e  s t e p   16002                              ( at time 7.9996994E+00 )

 nodal point  x-disp     y-disp      z-disp      x-vel       y-vel       z-vel      x-accl      y-accl      z-accl      x-coor      y-coor      z-coor
    22626 -1.08951E-02 1.58118E+00-5.28139E-01 1.51847E-03 7.31735E-01 8.95722E-02-4.91027E-04 1.90636E-01 1.31983E-01 4.64848E+00-2.66096E+01-4.55099E+01



 n o d a l   p r i n t   o u t   f o r   t i m e  s t e p   16002                              ( at time 7.9996994E+00 )

 nodal point  x-rot      y-rot       z-rot       x-rot vel   y-rot vel   z-rot vel   x-rot acc   y-rot acc   z-rot acc
    22626 -1.04617E-02-3.78336E-05-8.17633E-05-5.55103E-03 2.35038E-05 3.50705E-05-1.76738E-03-4.82993E-05 8.47200E-05



 n o d a l   p r i n t   o u t   f o r   t i m e  s t e p   16202                              ( at time 8.0996894E+00 )

 nodal point  x-disp     y-disp      z-disp      x-vel       y-vel       z-vel      x-accl      y-accl      z-accl      x-coor      y-coor      z-coor
    22626 -1.07361E-02 1.65529E+00-5.18440E-01 1.66625E-03 7.50098E-01 1.04764E-01 1.47796E-03 1.83644E-01 1.51930E-01 4.64864E+00-2.65355E+01-4.55002E+01



 n o d a l   p r i n t   o u t   f o r   t i m e  s t e p   16202                              ( at time 8.0996894E+00 )

 nodal point  x-rot      y-rot       z-rot       x-rot vel   y-rot vel   z-rot vel   x-rot acc   y-rot acc   z-rot acc
    22626 -1.10258E-02-3.52305E-05-7.78060E-05-5.72650E-03 3.08064E-05 3.75309E-05-1.75490E-03 7.30332E-05 2.46064E-05



 n o d a l   p r i n t   o u t   f o r   t i m e  s t e p   16402                              ( at time 8.1996794E+00 )

 nodal point  x-disp     y-disp      z-disp      x-vel       y-vel       z-vel      x-accl      y-accl      z-accl      x-coor      y-coor      z-coor
    22626 -1.05158E-02 1.73119E+00-5.07166E-01 2.27279E-03 7.68054E-01 1.20930E-01 6.06600E-03 1.79576E-01 1.61684E-01 4.64886E+00-2.64596E+01-4.54889E+01



 n o d a l   p r i n t   o u t   f o r   t i m e  s t e p   16402                              ( at time 8.1996794E+00 )

 nodal point  x-rot      y-rot       z-rot       x-rot vel   y-rot vel   z-rot vel   x-rot acc   y-rot acc   z-rot acc
    22626 -1.16070E-02-3.17935E-05-7.42464E-05-5.89096E-03 3.23238E-05 3.68578E-05-1.64481E-03 1.51757E-05-6.73207E-06



 n o d a l   p r i n t   o u t   f o r   t i m e  s t e p   16602                              ( at time 8.2996694E+00 )

 nodal point  x-disp     y-disp      z-disp      x-vel       y-vel       z-vel      x-accl      y-accl      z-accl      x-coor      y-coor      z-coor
    22626 -1.02599E-02 1.80886E+00-4.94272E-01 2.97485E-03 7.85487E-01 1.37207E-01 7.02125E-03 1.74347E-01 1.62783E-01 4.64912E+00-2.63820E+01-4.54760E+01



 n o d a l   p r i n t   o u t   f o r   t i m e  s t e p   16602                              ( at time 8.2996694E+00 )

 nodal point  x-rot      y-rot       z-rot       x-rot vel   y-rot vel   z-rot vel   x-rot acc   y-rot acc   z-rot acc
    22626 -1.22051E-02-2.85864E-05-6.94189E-05-6.06598E-03 3.67317E-05 5.02434E-05-1.75039E-03 4.40832E-05 1.33870E-04



 n o d a l   p r i n t   o u t   f o r   t i m e  s t e p   16802                              ( at time 8.3996594E+00 )

 nodal point  x-disp     y-disp      z-disp      x-vel       y-vel       z-vel      x-accl      y-accl      z-accl      x-coor      y-coor      z-coor
    22626 -9.95013E-03 1.88831E+00-4.79689E-01 2.99347E-03 8.03535E-01 1.54405E-01 1.86241E-04 1.80499E-01 1.71999E-01 4.64943E+00-2.63025E+01-4.54614E+01



 n o d a l   p r i n t   o u t   f o r   t i m e  s t e p   16802                              ( at time 8.3996594E+00 )

 nodal point  x-rot      y-rot       z-rot       x-rot vel   y-rot vel   z-rot vel   x-rot acc   y-rot acc   z-rot acc
    22626 -1.28203E-02-2.49040E-05-6.44439E-05-6.23967E-03 3.70877E-05 4.75432E-05-1.73701E-03 3.56045E-06-2.70047E-05



 n o d a l   p r i n t   o u t   f o r   t i m e  s t e p   17002                              ( at time 8.4996494E+00 )

 nodal point  x-disp     y-disp      z-disp      x-vel       y-vel       z-vel      x-accl      y-accl      z-accl      x-coor      y-coor      z-coor
    22626 -9.64218E-03 1.96947E+00-4.63361E-01 3.26560E-03 8.20071E-01 1.72523E-01 2.72155E-03 1.65381E-01 1.81197E-01 4.64973E+00-2.62214E+01-4.54451E+01



 n o d a l   p r i n t   o u t   f o r   t i m e  s t e p   17002                              ( at time 8.4996494E+00 )

 nodal point  x-rot      y-rot       z-rot       x-rot vel   y-rot vel   z-rot vel   x-rot acc   y-rot acc   z-rot acc
    22626 -1.34528E-02-2.12938E-05-5.95811E-05-6.41123E-03 3.76875E-05 5.19993E-05-1.71578E-03 5.99858E-06 4.45663E-05



 n o d a l   p r i n t   o u t   f o r   t i m e  s t e p   17202                              ( at time 8.5996394E+00 )

 nodal point  x-disp     y-disp      z-disp      x-vel       y-vel       z-vel      x-accl      y-accl      z-accl      x-coor      y-coor      z-coor
    22626 -9.27043E-03 2.05229E+00-4.45233E-01 4.12026E-03 8.36937E-01 1.90027E-01 8.54755E-03 1.68675E-01 1.75062E-01 4.65010E+00-2.61385E+01-4.54270E+01



 n o d a l   p r i n t   o u t   f o r   t i m e  s t e p   17202                              ( at time 8.5996394E+00 )

 nodal point  x-rot      y-rot       z-rot       x-rot vel   y-rot vel   z-rot vel   x-rot acc   y-rot acc   z-rot acc
    22626 -1.41025E-02-1.68472E-05-5.44191E-05-6.58071E-03 4.98927E-05 5.52199E-05-1.69495E-03 1.22065E-04 3.22086E-05



 n o d a l   p r i n t   o u t   f o r   t i m e  s t e p   17402                              ( at time 8.6996293E+00 )

 nodal point  x-disp     y-disp      z-disp      x-vel       y-vel       z-vel      x-accl      y-accl      z-accl      x-coor      y-coor      z-coor
    22626 -8.88450E-03 2.13679E+00-4.25292E-01 3.63553E-03 8.52686E-01 2.09383E-01-4.84778E-03 1.57503E-01 1.93574E-01 4.65049E+00-2.60540E+01-4.54070E+01



 n o d a l   p r i n t   o u t   f o r   t i m e  s t e p   17402                              ( at time 8.6996293E+00 )

 nodal point  x-rot      y-rot       z-rot       x-rot vel   y-rot vel   z-rot vel   x-rot acc   y-rot acc   z-rot acc
    22626 -1.47689E-02-1.20384E-05-4.90020E-05-6.73900E-03 4.18058E-05 5.52221E-05-1.58309E-03-8.08762E-05 2.21937E-08



 n o d a l   p r i n t   o u t   f o r   t i m e  s t e p   17602                              ( at time 8.7996193E+00 )

 nodal point  x-disp     y-disp      z-disp      x-vel       y-vel       z-vel      x-accl      y-accl      z-accl      x-coor      y-coor      z-coor
    22626 -8.49065E-03 2.22291E+00-4.03354E-01 4.33547E-03 8.69537E-01 2.28700E-01 7.00006E-03 1.68529E-01 1.93189E-01 4.65088E+00-2.59679E+01-4.53851E+01



 n o d a l   p r i n t   o u t   f o r   t i m e  s t e p   17602                              ( at time 8.7996193E+00 )

 nodal point  x-rot      y-rot       z-rot       x-rot vel   y-rot vel   z-rot vel   x-rot acc   y-rot acc   z-rot acc
    22626 -1.54505E-02-7.80633E-06-4.40127E-05-6.89442E-03 4.49768E-05 5.17044E-05-1.55432E-03 3.17131E-05-3.51807E-05



 n o d a l   p r i n t   o u t   f o r   t i m e  s t e p   17802                              ( at time 8.8996093E+00 )

 nodal point  x-disp     y-disp      z-disp      x-vel       y-vel       z-vel      x-accl      y-accl      z-accl      x-coor      y-coor      z-coor
    22626 -8.00877E-03 2.31068E+00-3.79513E-01 5.35064E-03 8.85732E-01 2.48070E-01 1.01527E-02 1.61962E-01 1.93722E-01 4.65137E+00-2.58801E+01-4.53612E+01



 n o d a l   p r i n t   o u t   f o r   t i m e  s t e p   17802                              ( at time 8.8996093E+00 )

 nodal point  x-rot      y-rot       z-rot       x-rot vel   y-rot vel   z-rot vel   x-rot acc   y-rot acc   z-rot acc
    22626 -1.61473E-02-2.51819E-06-3.78155E-05-7.04116E-03 6.09863E-05 7.13427E-05-1.46754E-03 1.60111E-04 1.96403E-04



 n o d a l   p r i n t   o u t   f o r   t i m e  s t e p   18002                              ( at time 8.9995993E+00 )

 nodal point  x-disp     y-disp      z-disp      x-vel       y-vel       z-vel      x-accl      y-accl      z-accl      x-coor      y-coor      z-coor
    22626 -7.46312E-03 2.40006E+00-3.53710E-01 5.71168E-03 9.01490E-01 2.67969E-01 3.61078E-03 1.57602E-01 1.99003E-01 4.65191E+00-2.57908E+01-4.53354E+01



 n o d a l   p r i n t   o u t   f o r   t i m e  s t e p   18002                              ( at time 8.9995993E+00 )

 nodal point  x-rot      y-rot       z-rot       x-rot vel   y-rot vel   z-rot vel   x-rot acc   y-rot acc   z-rot acc
    22626 -1.68595E-02 3.35402E-06-3.05459E-05-7.19266E-03 5.78396E-05 7.02562E-05-1.51518E-03-3.14701E-05-1.08662E-05



 n o d a l   p r i n t   o u t   f o r   t i m e  s t e p   18202                              ( at time 9.0995893E+00 )

 nodal point  x-disp     y-disp      z-disp      x-vel       y-vel       z-vel      x-accl      y-accl      z-accl      x-coor      y-coor      z-coor
    22626 -6.90234E-03 2.49099E+00-3.25843E-01 5.14517E-03 9.17305E-01 2.88915E-01-5.66566E-03 1.58169E-01 2.09486E-01 4.65247E+00-2.56998E+01-4.53076E+01



 n o d a l   p r i n t   o u t   f o r   t i m e  s t e p   18202                              ( at time 9.0995893E+00 )

 nodal point  x-rot      y-rot       z-rot       x-rot vel   y-rot vel   z-rot vel   x-rot acc   y-rot acc   z-rot acc
    22626 -1.75860E-02 8.81568E-06-2.32853E-05-7.33257E-03 5.22833E-05 7.72136E-05-1.39927E-03-5.55684E-05 6.95811E-05



 n o d a l   p r i n t   o u t   f o r   t i m e  s t e p   18402                              ( at time 9.1995793E+00 )

 nodal point  x-disp     y-disp      z-disp      x-vel       y-vel       z-vel      x-accl      y-accl      z-accl      x-coor      y-coor      z-coor
    22626 -6.33451E-03 2.58350E+00-2.95927E-01 6.70241E-03 9.33074E-01 3.09418E-01 1.55740E-02 1.57696E-01 2.05048E-01 4.65304E+00-2.56073E+01-4.52776E+01



 n o d a l   p r i n t   o u t   f o r   t i m e  s t e p   18402                              ( at time 9.1995793E+00 )

 nodal point  x-rot      y-rot       z-rot       x-rot vel   y-rot vel   z-rot vel   x-rot acc   y-rot acc   z-rot acc
    22626 -1.83262E-02 1.46865E-05-1.53679E-05-7.46514E-03 6.89288E-05 7.60435E-05-1.32584E-03 1.66471E-04-1.17025E-05



 n o d a l   p r i n t   o u t   f o r   t i m e  s t e p   18602                              ( at time 9.2995693E+00 )

 nodal point  x-disp     y-disp      z-disp      x-vel       y-vel       z-vel      x-accl      y-accl      z-accl      x-coor      y-coor      z-coor
    22626 -5.64080E-03 2.67758E+00-2.63937E-01 6.68399E-03 9.48419E-01 3.30918E-01-1.84267E-04 1.53471E-01 2.15023E-01 4.65373E+00-2.55133E+01-4.52457E+01



 n o d a l   p r i n t   o u t   f o r   t i m e  s t e p   18602                              ( at time 9.2995693E+00 )

 nodal point  x-rot      y-rot       z-rot       x-rot vel   y-rot vel   z-rot vel   x-rot acc   y-rot acc   z-rot acc
    22626 -1.90803E-02 2.18784E-05-7.55904E-06-7.61240E-03 6.95576E-05 8.11542E-05-1.47268E-03 6.28888E-06 5.11127E-05



 n o d a l   p r i n t   o u t   f o r   t i m e  s t e p   18802                              ( at time 9.3995593E+00 )

 nodal point  x-disp     y-disp      z-disp      x-vel       y-vel       z-vel      x-accl      y-accl      z-accl      x-coor      y-coor      z-coor
    22626 -4.97235E-03 2.77316E+00-2.29737E-01 6.67462E-03 9.63697E-01 3.52961E-01-9.36912E-05 1.52795E-01 2.20453E-01 4.65440E+00-2.54177E+01-4.52115E+01



 n o d a l   p r i n t   o u t   f o r   t i m e  s t e p   18802                              ( at time 9.3995593E+00 )

 nodal point  x-rot      y-rot       z-rot       x-rot vel   y-rot vel   z-rot vel   x-rot acc   y-rot acc   z-rot acc
    22626 -1.98478E-02 2.77967E-05 6.28453E-07-7.73645E-03 5.01906E-05 7.75860E-05-1.24067E-03-1.93689E-04-3.56864E-05



 n o d a l   p r i n t   o u t   f o r   t i m e  s t e p   19002                              ( at time 9.4995493E+00 )

 nodal point  x-disp     y-disp      z-disp      x-vel       y-vel       z-vel      x-accl      y-accl      z-accl      x-coor      y-coor      z-coor
    22626 -4.26604E-03 2.87029E+00-1.93379E-01 7.75191E-03 9.78565E-01 3.74669E-01 1.07740E-02 1.48696E-01 2.17107E-01 4.65511E+00-2.53205E+01-4.51751E+01



 n o d a l   p r i n t   o u t   f o r   t i m e  s t e p   19002                              ( at time 9.4995493E+00 )

 nodal point  x-rot      y-rot       z-rot       x-rot vel   y-rot vel   z-rot vel   x-rot acc   y-rot acc   z-rot acc
    22626 -2.06286E-02 3.33612E-05 8.40115E-06-7.88171E-03 6.78737E-05 8.05658E-05-1.45279E-03 1.76848E-04 2.98019E-05



 n o d a l   p r i n t   o u t   f o r   t i m e  s t e p   19202                              ( at time 9.5995393E+00 )

 nodal point  x-disp     y-disp      z-disp      x-vel       y-vel       z-vel      x-accl      y-accl      z-accl      x-coor      y-coor      z-coor
    22626 -3.44298E-03 2.96886E+00-1.54668E-01 8.36452E-03 9.92611E-01 3.99085E-01 6.12664E-03 1.40473E-01 2.44175E-01 4.65593E+00-2.52220E+01-4.51364E+01



 n o d a l   p r i n t   o u t   f o r   t i m e  s t e p   19202                              ( at time 9.5995393E+00 )

 nodal point  x-rot      y-rot       z-rot       x-rot vel   y-rot vel   z-rot vel   x-rot acc   y-rot acc   z-rot acc
    22626 -2.14232E-02 4.06101E-05 1.68263E-05-8.01779E-03 7.13795E-05 9.01824E-05-1.36085E-03 3.50612E-05 9.61743E-05



 n o d a l   p r i n t   o u t   f o r   t i m e  s t e p   19402                              ( at time 9.6995293E+00 )

 nodal point  x-disp     y-disp      z-disp      x-vel       y-vel       z-vel      x-accl      y-accl      z-accl      x-coor      y-coor      z-coor
    22626 -2.59934E-03 3.06887E+00-1.13564E-01 8.32465E-03 1.00749E+00 4.22601E-01-3.98758E-04 1.48789E-01 2.35184E-01 4.65678E+00-2.51220E+01-4.50953E+01



 n o d a l   p r i n t   o u t   f o r   t i m e  s t e p   19402                              ( at time 9.6995293E+00 )

 nodal point  x-rot      y-rot       z-rot       x-rot vel   y-rot vel   z-rot vel   x-rot acc   y-rot acc   z-rot acc
    22626 -2.22310E-02 4.74454E-05 2.58483E-05-8.14984E-03 6.17438E-05 9.25699E-05-1.32068E-03-9.63661E-05 2.38774E-05



 n o d a l   p r i n t   o u t   f o r   t i m e  s t e p   19602                              ( at time 9.7995193E+00 )

 nodal point  x-disp     y-disp      z-disp      x-vel       y-vel       z-vel      x-accl      y-accl      z-accl      x-coor      y-coor      z-coor
    22626 -1.74682E-03 3.17035E+00-7.00742E-02 9.09635E-03 1.02154E+00 4.47527E-01 7.71780E-03 1.40564E-01 2.49289E-01 4.65763E+00-2.50205E+01-4.50518E+01



 n o d a l   p r i n t   o u t   f o r   t i m e  s t e p   19602                              ( at time 9.7995193E+00 )

 nodal point  x-rot      y-rot       z-rot       x-rot vel   y-rot vel   z-rot vel   x-rot acc   y-rot acc   z-rot acc
    22626 -2.30539E-02 5.38526E-05 3.52366E-05-8.30823E-03 7.37601E-05 9.88315E-05-1.58402E-03 1.20175E-04 6.26226E-05



 n o d a l   p r i n t   o u t   f o r   t i m e  s t e p   19802                              ( at time 9.8995093E+00 )

 nodal point  x-disp     y-disp      z-disp      x-vel       y-vel       z-vel      x-accl      y-accl      z-accl      x-coor      y-coor      z-coor
    22626 -7.85329E-04 3.27317E+00-2.40270E-02 1.00049E-02 1.03506E+00 4.72958E-01 9.08656E-03 1.35198E-01 2.54333E-01 4.65859E+00-2.49177E+01-4.50057E+01



 n o d a l   p r i n t   o u t   f o r   t i m e  s t e p   19802                              ( at time 9.8995093E+00 )

 nodal point  x-rot      y-rot       z-rot       x-rot vel   y-rot vel   z-rot vel   x-rot acc   y-rot acc   z-rot acc
    22626 -2.38914E-02 6.23590E-05 4.57852E-05-8.45107E-03 8.98749E-05 1.11250E-04-1.42851E-03 1.61165E-04 1.24195E-04



 n o d a l   p r i n t   o u t   f o r   t i m e  s t e p   20003                              ( at time 9.9999992E+00 )

 nodal point  x-disp     y-disp      z-disp      x-vel       y-vel       z-vel      x-accl      y-accl      z-accl      x-coor      y-coor      z-coor
[...]
    22626 -2.01274E-01 1.42466E-03 1.51915E-03-1.79625E-02 8.12043E-05 1.20220E-04-3.03397E-04 1.40336E-05 6.67937E-05



 n o d a l   p r i n t   o u t   f o r   t i m e  s t e p   45205                              ( at time 2.2599738E+01 )

 nodal point  x-disp     y-disp      z-disp      x-vel       y-vel       z-vel      x-accl      y-accl      z-accl      x-coor      y-coor      z-coor
    22626  3.17716E-01 2.09162E+01 1.78593E+01 2.04729E-02 1.69451E+00 9.18045E-01-1.22267E-02 3.02831E-02-1.42585E-01 4.97709E+00-7.27459E+00-2.71224E+01



 n o d a l   p r i n t   o u t   f o r   t i m e  s t e p   45205                              ( at time 2.2599738E+01 )

 nodal point  x-rot      y-rot       z-rot       x-rot vel   y-rot vel   z-rot vel   x-rot acc   y-rot acc   z-rot acc
    22626 -2.03072E-01 1.43193E-03 1.53106E-03-1.79776E-02 6.19179E-05 1.13099E-04-1.50516E-04-1.92881E-04-7.12197E-05



 n o d a l   p r i n t   o u t   f o r   t i m e  s t e p   45405                              ( at time 2.2699728E+01 )

 nodal point  x-disp     y-disp      z-disp      x-vel       y-vel       z-vel      x-accl      y-accl      z-accl      x-coor      y-coor      z-coor
    22626  3.19722E-01 2.10858E+01 1.79505E+01 1.99810E-02 1.69786E+00 9.05286E-01-4.91931E-03 3.35373E-02-1.27604E-01 4.97910E+00-7.10499E+00-2.70312E+01



 n o d a l   p r i n t   o u t   f o r   t i m e  s t e p   45405                              ( at time 2.2699728E+01 )

 nodal point  x-rot      y-rot       z-rot       x-rot vel   y-rot vel   z-rot vel   x-rot acc   y-rot acc   z-rot acc
    22626 -2.04870E-01 1.43873E-03 1.54216E-03-1.79877E-02 7.11881E-05 1.10530E-04-1.01283E-04 9.27123E-05-2.56892E-05



 n o d a l   p r i n t   o u t   f o r   t i m e  s t e p   45605                              ( at time 2.2799718E+01 )

 nodal point  x-disp     y-disp      z-disp      x-vel       y-vel       z-vel      x-accl      y-accl      z-accl      x-coor      y-coor      z-coor
    22626  3.21788E-01 2.12558E+01 1.80403E+01 2.10086E-02 1.70125E+00 8.91991E-01 1.02765E-02 3.38776E-02-1.32963E-01 4.98116E+00-6.93505E+00-2.69414E+01



 n o d a l   p r i n t   o u t   f o r   t i m e  s t e p   45605                              ( at time 2.2799718E+01 )

 nodal point  x-rot      y-rot       z-rot       x-rot vel   y-rot vel   z-rot vel   x-rot acc   y-rot acc   z-rot acc
    22626 -2.06670E-01 1.44697E-03 1.55446E-03-1.79994E-02 9.05826E-05 1.30316E-04-1.17171E-04 1.93963E-04 1.97875E-04



 n o d a l   p r i n t   o u t   f o r   t i m e  s t e p   45805                              ( at time 2.2899708E+01 )

 nodal point  x-disp     y-disp      z-disp      x-vel       y-vel       z-vel      x-accl      y-accl      z-accl      x-coor      y-coor      z-coor
    22626  3.23846E-01 2.14260E+01 1.81289E+01 2.01194E-02 1.70302E+00 8.80553E-01-8.89238E-03 1.76819E-02-1.14389E-01 4.98322E+00-6.76486E+00-2.68528E+01



 n o d a l   p r i n t   o u t   f o r   t i m e  s t e p   45805                              ( at time 2.2899708E+01 )

 nodal point  x-rot      y-rot       z-rot       x-rot vel   y-rot vel   z-rot vel   x-rot acc   y-rot acc   z-rot acc
    22626 -2.08471E-01 1.45590E-03 1.56747E-03-1.80133E-02 8.80544E-05 1.21746E-04-1.38745E-04-2.52852E-05-8.57091E-05



 n o d a l   p r i n t   o u t   f o r   t i m e  s t e p   46005                              ( at time 2.2999698E+01 )

 nodal point  x-disp     y-disp      z-disp      x-vel       y-vel       z-vel      x-accl      y-accl      z-accl      x-coor      y-coor      z-coor
    22626  3.25803E-01 2.15964E+01 1.82164E+01 1.92321E-02 1.70543E+00 8.69643E-01-8.87425E-03 2.41492E-02-1.09109E-01 4.98518E+00-6.59444E+00-2.67653E+01



 n o d a l   p r i n t   o u t   f o r   t i m e  s t e p   46005                              ( at time 2.2999698E+01 )

 nodal point  x-rot      y-rot       z-rot       x-rot vel   y-rot vel   z-rot vel   x-rot acc   y-rot acc   z-rot acc
    22626 -2.10273E-01 1.46360E-03 1.57935E-03-1.80132E-02 7.23433E-05 1.18163E-04 9.87292E-07-1.57124E-04-3.58292E-05



 n o d a l   p r i n t   o u t   f o r   t i m e  s t e p   46205                              ( at time 2.3099688E+01 )

 nodal point  x-disp     y-disp      z-disp      x-vel       y-vel       z-vel      x-accl      y-accl      z-accl      x-coor      y-coor      z-coor
    22626  3.27763E-01 2.17670E+01 1.83028E+01 1.99239E-02 1.70767E+00 8.59487E-01 6.91861E-03 2.23304E-02-1.01572E-01 4.98714E+00-6.42378E+00-2.66789E+01



 n o d a l   p r i n t   o u t   f o r   t i m e  s t e p   46205                              ( at time 2.3099688E+01 )

 nodal point  x-rot      y-rot       z-rot       x-rot vel   y-rot vel   z-rot vel   x-rot acc   y-rot acc   z-rot acc
    22626 -2.12075E-01 1.47165E-03 1.59215E-03-1.80158E-02 8.74506E-05 1.36060E-04-2.65270E-05 1.51089E-04 1.78981E-04



 n o d a l   p r i n t   o u t   f o r   t i m e  s t e p   46405                              ( at time 2.3199678E+01 )

 nodal point  x-disp     y-disp      z-disp      x-vel       y-vel       z-vel      x-accl      y-accl      z-accl      x-coor      y-coor      z-coor
    22626  3.29802E-01 2.19379E+01 1.83883E+01 2.02391E-02 1.70936E+00 8.50478E-01 3.15233E-03 1.69364E-02-9.00989E-02 4.98918E+00-6.25294E+00-2.65934E+01



 n o d a l   p r i n t   o u t   f o r   t i m e  s t e p   46405                              ( at time 2.3199678E+01 )

 nodal point  x-rot      y-rot       z-rot       x-rot vel   y-rot vel   z-rot vel   x-rot acc   y-rot acc   z-rot acc
    22626 -2.13877E-01 1.48101E-03 1.60537E-03-1.80098E-02 9.28423E-05 1.25395E-04 6.01689E-05 5.39223E-05-1.06652E-04



 n o d a l   p r i n t   o u t   f o r   t i m e  s t e p   46605                              ( at time 2.3299668E+01 )

 nodal point  x-disp     y-disp      z-disp      x-vel       y-vel       z-vel      x-accl      y-accl      z-accl      x-coor      y-coor      z-coor
    22626  3.31744E-01 2.21089E+01 1.84729E+01 1.89508E-02 1.71072E+00 8.41736E-01-1.28844E-02 1.35842E-02-8.74258E-02 4.99112E+00-6.08195E+00-2.65088E+01



 n o d a l   p r i n t   o u t   f o r   t i m e  s t e p   46605                              ( at time 2.3299668E+01 )

 nodal point  x-rot      y-rot       z-rot       x-rot vel   y-rot vel   z-rot vel   x-rot acc   y-rot acc   z-rot acc
    22626 -2.15678E-01 1.48928E-03 1.61772E-03-1.80060E-02 7.43483E-05 1.26127E-04 3.83747E-05-1.84960E-04 7.31693E-06



 n o d a l   p r i n t   o u t   f o r   t i m e  s t e p   46805                              ( at time 2.3399658E+01 )

 nodal point  x-disp     y-disp      z-disp      x-vel       y-vel       z-vel      x-accl      y-accl      z-accl      x-coor      y-coor      z-coor
    22626  3.33667E-01 2.22800E+01 1.85567E+01 1.94263E-02 1.71186E+00 8.34491E-01 4.75528E-03 1.14618E-02-7.24650E-02 4.99304E+00-5.91081E+00-2.64250E+01



 n o d a l   p r i n t   o u t   f o r   t i m e  s t e p   46805                              ( at time 2.3399658E+01 )

 nodal point  x-rot      y-rot       z-rot       x-rot vel   y-rot vel   z-rot vel   x-rot acc   y-rot acc   z-rot acc
    22626 -2.17479E-01 1.49709E-03 1.63061E-03-1.80040E-02 8.41372E-05 1.32178E-04 2.01370E-05 9.78978E-05 6.05125E-05



 n o d a l   p r i n t   o u t   f o r   t i m e  s t e p   47005                              ( at time 2.3499648E+01 )

 nodal point  x-disp     y-disp      z-disp      x-vel       y-vel       z-vel      x-accl      y-accl      z-accl      x-coor      y-coor      z-coor
    22626  3.35629E-01 2.24513E+01 1.86398E+01 1.97514E-02 1.71332E+00 8.27365E-01 3.25201E-03 1.46116E-02-7.12627E-02 4.99500E+00-5.73956E+00-2.63420E+01



 n o d a l   p r i n t   o u t   f o r   t i m e  s t e p   47005                              ( at time 2.3499648E+01 )

 nodal point  x-rot      y-rot       z-rot       x-rot vel   y-rot vel   z-rot vel   x-rot acc   y-rot acc   z-rot acc
    22626 -2.19278E-01 1.50633E-03 1.64380E-03-1.79815E-02 9.47688E-05 1.32680E-04 2.25065E-04 1.06325E-04 5.02669E-06



 n o d a l   p r i n t   o u t   f o r   t i m e  s t e p   47205                              ( at time 2.3599638E+01 )

 nodal point  x-disp     y-disp      z-disp      x-vel       y-vel       z-vel      x-accl      y-accl      z-accl      x-coor      y-coor      z-coor
    22626  3.37557E-01 2.26226E+01 1.87222E+01 1.89778E-02 1.71402E+00 8.21490E-01-7.73664E-03 6.92444E-03-5.87570E-02 4.99693E+00-5.56823E+00-2.62595E+01



 n o d a l   p r i n t   o u t   f o r   t i m e  s t e p   47205                              ( at time 2.3599638E+01 )

 nodal point  x-rot      y-rot       z-rot       x-rot vel   y-rot vel   z-rot vel   x-rot acc   y-rot acc   z-rot acc
    22626 -2.21075E-01 1.51582E-03 1.65733E-03-1.79651E-02 9.87607E-05 1.36789E-04 1.63707E-04 3.99240E-05 4.10891E-05



 n o d a l   p r i n t   o u t   f o r   t i m e  s t e p   47405                              ( at time 2.3699628E+01 )

 nodal point  x-disp     y-disp      z-disp      x-vel       y-vel       z-vel      x-accl      y-accl      z-accl      x-coor      y-coor      z-coor
    22626  3.39409E-01 2.27940E+01 1.88040E+01 1.79955E-02 1.71469E+00 8.16350E-01-9.82402E-03 6.68348E-03-5.14012E-02 4.99878E+00-5.39681E+00-2.61777E+01



 n o d a l   p r i n t   o u t   f o r   t i m e  s t e p   47405                              ( at time 2.3699628E+01 )

 nodal point  x-rot      y-rot       z-rot       x-rot vel   y-rot vel   z-rot vel   x-rot acc   y-rot acc   z-rot acc
    22626 -2.22871E-01 1.52511E-03 1.67080E-03-1.79477E-02 9.12847E-05 1.38514E-04 1.74192E-04-7.47676E-05 1.72546E-05



 n o d a l   p r i n t   o u t   f o r   t i m e  s t e p   47605                              ( at time 2.3799618E+01 )

 nodal point  x-disp     y-disp      z-disp      x-vel       y-vel       z-vel      x-accl      y-accl      z-accl      x-coor      y-coor      z-coor
    22626  3.41263E-01 2.29655E+01 1.88854E+01 1.89116E-02 1.71505E+00 8.11707E-01 9.16195E-03 3.66132E-03-4.64342E-02 5.00064E+00-5.22536E+00-2.60963E+01



 n o d a l   p r i n t   o u t   f o r   t i m e  s t e p   47605                              ( at time 2.3799618E+01 )

 nodal point  x-rot      y-rot       z-rot       x-rot vel   y-rot vel   z-rot vel   x-rot acc   y-rot acc   z-rot acc
    22626 -2.24663E-01 1.53456E-03 1.68478E-03-1.79058E-02 1.07721E-04 1.44320E-04 4.18657E-04 1.64381E-04 5.80706E-05



 n o d a l   p r i n t   o u t   f o r   t i m e  s t e p   47805                              ( at time 2.3899608E+01 )

 nodal point  x-disp     y-disp      z-disp      x-vel       y-vel       z-vel      x-accl      y-accl      z-accl      x-coor      y-coor      z-coor
    22626  3.43153E-01 2.31369E+01 1.89664E+01 1.89464E-02 1.71464E+00 8.08006E-01 3.47490E-04-4.11310E-03-3.70161E-02 5.00253E+00-5.05391E+00-2.60153E+01



 n o d a l   p r i n t   o u t   f o r   t i m e  s t e p   47805                              ( at time 2.3899608E+01 )

 nodal point  x-rot      y-rot       z-rot       x-rot vel   y-rot vel   z-rot vel   x-rot acc   y-rot acc   z-rot acc
    22626 -2.26453E-01 1.54573E-03 1.69933E-03-1.78793E-02 1.08406E-04 1.43097E-04 2.64874E-04 6.84796E-06-1.22361E-05



 n o d a l   p r i n t   o u t   f o r   t i m e  s t e p   48005                              ( at time 2.3999598E+01 )

 nodal point  x-disp     y-disp      z-disp      x-vel       y-vel       z-vel      x-accl      y-accl      z-accl      x-coor      y-coor      z-coor
    22626  3.44986E-01 2.33084E+01 1.90470E+01 1.79904E-02 1.71471E+00 8.05100E-01-9.56073E-03 7.05797E-04-2.90676E-02 5.00436E+00-4.88247E+00-2.59347E+01



 n o d a l   p r i n t   o u t   f o r   t i m e  s t e p   48005                              ( at time 2.3999598E+01 )

 nodal point  x-rot      y-rot       z-rot       x-rot vel   y-rot vel   z-rot vel   x-rot acc   y-rot acc   z-rot acc
    22626 -2.28240E-01 1.55592E-03 1.71389E-03-1.78593E-02 9.75243E-05 1.44335E-04 2.00201E-04-1.08826E-04 1.23858E-05



 n o d a l   p r i n t   o u t   f o r   t i m e  s t e p   48205                              ( at time 2.4099588E+01 )

 nodal point  x-disp     y-disp      z-disp      x-vel       y-vel       z-vel      x-accl      y-accl      z-accl      x-coor      y-coor      z-coor
    22626  3.46794E-01 2.34798E+01 1.91274E+01 1.82158E-02 1.71340E+00 8.02738E-01 2.25404E-03-1.31297E-02-2.36145E-02 5.00617E+00-4.71108E+00-2.58543E+01



 n o d a l   p r i n t   o u t   f o r   t i m e  s t e p   48205                              ( at time 2.4099588E+01 )

 nodal point  x-rot      y-rot       z-rot       x-rot vel   y-rot vel   z-rot vel   x-rot acc   y-rot acc   z-rot acc
    22626 -2.30024E-01 1.56595E-03 1.72795E-03-1.78199E-02 1.00059E-04 1.45214E-04 3.93948E-04 2.53520E-05 8.78201E-06



 n o d a l   p r i n t   o u t   f o r   t i m e  s t e p   48405                              ( at time 2.4199578E+01 )

 nodal point  x-disp     y-disp      z-disp      x-vel       y-vel       z-vel      x-accl      y-accl      z-accl      x-coor      y-coor      z-coor
    22626  3.48675E-01 2.36510E+01 1.92076E+01 1.88462E-02 1.71247E+00 8.01090E-01 6.30473E-03-9.32439E-03-1.64855E-02 5.00805E+00-4.53979E+00-2.57742E+01



 n o d a l   p r i n t   o u t   f o r   t i m e  s t e p   48405                              ( at time 2.4199578E+01 )

 nodal point  x-rot      y-rot       z-rot       x-rot vel   y-rot vel   z-rot vel   x-rot acc   y-rot acc   z-rot acc
    22626 -2.31804E-01 1.57664E-03 1.74262E-03-1.77847E-02 1.12171E-04 1.51204E-04 3.51855E-04 1.21133E-04 5.99102E-05



 n o d a l   p r i n t   o u t   f o r   t i m e  s t e p   48605                              ( at time 2.4299568E+01 )

 nodal point  x-disp     y-disp      z-disp      x-vel       y-vel       z-vel      x-accl      y-accl      z-accl      x-coor      y-coor      z-coor
    22626  3.50508E-01 2.38222E+01 1.92876E+01 1.82928E-02 1.71129E+00 8.00420E-01-5.53478E-03-1.17956E-02-6.70077E-03 5.00988E+00-4.36862E+00-2.56941E+01



 n o d a l   p r i n t   o u t   f o r   t i m e  s t e p   48605                              ( at time 2.4299568E+01 )

 nodal point  x-rot      y-rot       z-rot       x-rot vel   y-rot vel   z-rot vel   x-rot acc   y-rot acc   z-rot acc
    22626 -2.33581E-01 1.58762E-03 1.75755E-03-1.77552E-02 1.05198E-04 1.40293E-04 2.95424E-04-6.97336E-05-1.09117E-04



 n o d a l   p r i n t   o u t   f o r   t i m e  s t e p   48805                              ( at time 2.4399558E+01 )

 nodal point  x-disp     y-disp      z-disp      x-vel       y-vel       z-vel      x-accl      y-accl      z-accl      x-coor      y-coor      z-coor
    22626  3.52301E-01 2.39932E+01 1.93677E+01 1.75898E-02 1.70930E+00 8.01060E-01-7.02989E-03-1.98657E-02 6.40391E-03 5.01168E+00-4.19758E+00-2.56140E+01



 n o d a l   p r i n t   o u t   f o r   t i m e  s t e p   48805                              ( at time 2.4399558E+01 )

 nodal point  x-rot      y-rot       z-rot       x-rot vel   y-rot vel   z-rot vel   x-rot acc   y-rot acc   z-rot acc
    22626 -2.35354E-01 1.59790E-03 1.77135E-03-1.77139E-02 1.04465E-04 1.45240E-04 4.13023E-04-7.33389E-06 4.94720E-05



 n o d a l   p r i n t   o u t   f o r   t i m e  s t e p   49006                              ( at time 2.4500048E+01 )

 nodal point  x-disp     y-disp      z-disp      x-vel       y-vel       z-vel      x-accl      y-accl      z-accl      x-coor      y-coor      z-coor
    22626  3.54111E-01 2.41649E+01 1.94482E+01 1.81701E-02 1.70764E+00 8.01297E-01 5.77433E-03-1.65524E-02 2.35420E-03 5.01349E+00-4.02592E+00-2.55335E+01



 n o d a l   p r i n t   o u t   f o r   t i m e  s t e p   49006                              ( at time 2.4500048E+01 )

 nodal point  x-rot      y-rot       z-rot       x-rot vel   y-rot vel   z-rot vel   x-rot acc   y-rot acc   z-rot acc
    22626 -2.37131E-01 1.60901E-03 1.78641E-03-1.76680E-02 1.13980E-04 1.55112E-04 4.56835E-04 9.46909E-05 9.82448E-05



 n o d a l   p r i n t   o u t   f o r   t i m e  s t e p   49206                              ( at time 2.4600038E+01 )

 nodal point  x-disp     y-disp      z-disp      x-vel       y-vel       z-vel      x-accl      y-accl      z-accl      x-coor      y-coor      z-coor
    22626  3.55928E-01 2.43355E+01 1.95284E+01 1.81321E-02 1.70490E+00 8.03045E-01-3.80201E-04-2.73372E-02 1.74836E-02 5.01530E+00-3.85531E+00-2.54533E+01



 n o d a l   p r i n t   o u t   f o r   t i m e  s t e p   49206                              ( at time 2.4600038E+01 )

 nodal point  x-rot      y-rot       z-rot       x-rot vel   y-rot vel   z-rot vel   x-rot acc   y-rot acc   z-rot acc
    22626 -2.38896E-01 1.62073E-03 1.80183E-03-1.76297E-02 1.18398E-04 1.47112E-04 3.83349E-04 4.41775E-05-8.00085E-05



 n o d a l   p r i n t   o u t   f o r   t i m e  s t e p   49406                              ( at time 2.4700028E+01 )

 nodal point  x-disp     y-disp      z-disp      x-vel       y-vel       z-vel      x-accl      y-accl      z-accl      x-coor      y-coor      z-coor
    22626  3.57683E-01 2.45059E+01 1.96088E+01 1.72326E-02 1.70214E+00 8.06010E-01-8.99569E-03-2.76191E-02 2.96566E-02 5.01706E+00-3.68495E+00-2.53729E+01



 n o d a l   p r i n t   o u t   f o r   t i m e  s t e p   49406                              ( at time 2.4700028E+01 )

 nodal point  x-rot      y-rot       z-rot       x-rot vel   y-rot vel   z-rot vel   x-rot acc   y-rot acc   z-rot acc
    22626 -2.40656E-01 1.63237E-03 1.81646E-03-1.75818E-02 1.15172E-04 1.51940E-04 4.78809E-04-3.22571E-05 4.82787E-05



 n o d a l   p r i n t   o u t   f o r   t i m e  s t e p   49606                              ( at time 2.4800018E+01 )

 nodal point  x-disp     y-disp      z-disp      x-vel       y-vel       z-vel      x-accl      y-accl      z-accl      x-coor      y-coor      z-coor
    22626  3.59441E-01 2.46759E+01 1.96895E+01 1.77675E-02 1.69902E+00 8.08113E-01 5.34967E-03-3.11987E-02 2.10304E-02 5.01882E+00-3.51491E+00-2.52922E+01



 n o d a l   p r i n t   o u t   f o r   t i m e  s t e p   49606                              ( at time 2.4800018E+01 )

 nodal point  x-rot      y-rot       z-rot       x-rot vel   y-rot vel   z-rot vel   x-rot acc   y-rot acc   z-rot acc
    22626 -2.42412E-01 1.64393E-03 1.83159E-03-1.75303E-02 1.18185E-04 1.53647E-04 5.15069E-04 3.01251E-05 1.70746E-05



 n o d a l   p r i n t   o u t   f o r   t i m e  s t e p   49806                              ( at time 2.4900008E+01 )

 nodal point  x-disp     y-disp      z-disp      x-vel       y-vel       z-vel      x-accl      y-accl      z-accl      x-coor      y-coor      z-coor
    22626  3.61219E-01 2.48456E+01 1.97706E+01 1.81271E-02 1.69579E+00 8.12572E-01 3.59661E-03-3.22962E-02 4.45886E-02 5.02059E+00-3.34518E+00-2.52112E+01



 n o d a l   p r i n t   o u t   f o r   t i m e  s t e p   49806                              ( at time 2.4900008E+01 )

 nodal point  x-rot      y-rot       z-rot       x-rot vel   y-rot vel   z-rot vel   x-rot acc   y-rot acc   z-rot acc
    22626 -2.44162E-01 1.65627E-03 1.84727E-03-1.74927E-02 1.22488E-04 1.53910E-04 3.75923E-04 4.30395E-05 2.62895E-06



 n o d a l   p r i n t   o u t   f o r   t i m e  s t e p   50006                              ( at time 2.4999998E+01 )

 nodal point  x-disp     y-disp      z-disp      x-vel       y-vel       z-vel      x-accl      y-accl      z-accl      x-coor      y-coor      z-coor
    22626  3.63011E-01 2.50150E+01 1.98520E+01 1.76223E-02 1.69208E+00 8.16730E-01-5.04862E-03-3.70942E-02 4.15906E-02 5.02239E+00-3.17580E+00-2.51297E+01



 n o d a l   p r i n t   o u t   f o r   t i m e  s t e p   50006                              ( at time 2.4999998E+01 )

 nodal point  x-rot      y-rot       z-rot       x-rot vel   y-rot vel   z-rot vel   x-rot acc   y-rot acc   z-rot acc
    22626 -2.45909E-01 1.66829E-03 1.86240E-03-1.74402E-02 1.18505E-04 1.49868E-04 5.24848E-04-3.98367E-05-4.04203E-05
