 LSTC 50th% Full_FE H-III Dummy (Beta Version, February 17, 2019)        
                    ls-dyna smp s R16 R16.0_619_d222963 date 03/18/2025

{BEGIN LEGEND}
 Entity #        Title
        1     Upper_Neck_Force_INJURY                                              
{END LEGEND}



 line#1  section#     time        x-force     y-force     z-force    magnitude
 line#2  resultant  moments       x-moment    y-moment    z-moment   magnitude
 line#3  centroids                x           y           z            area  
           1    0.00000E+00     0.0000E+00  0.0000E+00  0.0000E+00  0.0000E+00
ac ID =   33377                 0.0000E+00  0.0000E+00  0.0000E+00  0.0000E+00
                               -3.7437E-01  1.0501E+01 -4.6940E+01  0.0000E+00

           1    1.00490E-01     1.3560E-04 -4.9884E-03  2.5981E-01  2.5986E-01
ac ID =   33377                 4.2540E-01 -1.2521E+00 -2.7103E-02  1.3226E+00
                               -3.7387E-01  1.0590E+01 -4.6886E+01  2.5147E+03

           1    2.00480E-01    -4.4399E-02  6.5597E-04  4.4114E-01  4.4337E-01
ac ID =   33377                 3.0647E-01 -1.5969E+00  2.1630E-02  1.6262E+00
                               -3.7386E-01  1.0591E+01 -4.6888E+01  2.5147E+03

           1    3.00470E-01     1.4841E-02 -3.2029E-03  2.1781E-01  2.1834E-01
ac ID =   33377                 2.2331E-02 -3.3948E-01  6.2206E-02  3.4586E-01
                               -3.7382E-01  1.0591E+01 -4.6889E+01  2.5147E+03

           1    4.00460E-01     3.0391E-03  1.0654E-02  8.7856E-02  8.8552E-02
ac ID =   33377                -4.9465E-01 -9.4406E-01  1.2457E-03  1.0658E+00
                               -3.7384E-01  1.0592E+01 -4.6890E+01  2.5147E+03

           1    5.00450E-01    -4.0696E-02  4.2496E-03  1.6171E-01  1.6681E-01
ac ID =   33377                -3.9561E-01 -1.5063E+00 -1.1213E-01  1.5615E+00
                               -3.7385E-01  1.0594E+01 -4.6893E+01  2.5147E+03

           1    6.00440E-01    -1.0491E-02  4.0464E-03  3.4316E-01  3.4334E-01
ac ID =   33377                 9.0641E-02 -1.3285E+00 -3.5686E-02  1.3320E+00
                               -3.7385E-01  1.0595E+01 -4.6897E+01  2.5147E+03

           1    7.00430E-01     2.7656E-03 -5.3327E-03  2.9451E-01  2.9457E-01
ac ID =   33377                 1.3789E-01 -5.0273E-01  8.6556E-02  5.2843E-01
                               -3.7389E-01  1.0597E+01 -4.6901E+01  2.5147E+03

           1    8.00420E-01    -3.1269E-02 -1.0728E-03  1.0070E-01  1.0545E-01
ac ID =   33377                 8.4836E-02 -1.0552E+00  4.5857E-02  1.0596E+00
                               -3.7394E-01  1.0599E+01 -4.6905E+01  2.5147E+03

           1    9.00410E-01    -3.9276E-02  9.2728E-04  6.2324E-02  7.3673E-02
ac ID =   33377                 9.5708E-02 -1.0670E+00 -4.9192E-04  1.0712E+00
                               -3.7399E-01  1.0601E+01 -4.6909E+01  2.5147E+03

           1    1.00040E+00     1.4697E-02 -4.1356E-03  2.2037E-01  2.2090E-01
ac ID =   33377                 3.6584E-01 -2.8705E-01 -6.1601E-02  4.6907E-01
                               -3.7400E-01  1.0604E+01 -4.6915E+01  2.5147E+03

           1    1.10039E+00     1.7732E-04 -3.2116E-03  2.7101E-01  2.7102E-01
ac ID =   33377                 3.5025E-01 -8.8347E-01 -5.6615E-02  9.5205E-01
                               -3.7401E-01  1.0607E+01 -4.6921E+01  2.5147E+03

           1    1.20038E+00    -3.2167E-02 -4.2161E-04  1.2937E-01  1.3331E-01
ac ID =   33377                -1.4808E-01 -1.1804E+00  8.0028E-03  1.1897E+00
                               -3.7403E-01  1.0610E+01 -4.6927E+01  2.5147E+03

           1    1.30037E+00    -1.0267E-02  4.6753E-03  7.4710E-02  7.5557E-02
ac ID =   33377                -3.0352E-01 -8.8549E-01  1.5429E-02  9.3619E-01
                               -3.7407E-01  1.0612E+01 -4.6933E+01  2.5147E+03

           1    1.40036E+00     8.0683E-03  3.6741E-03  1.7365E-01  1.7388E-01
ac ID =   33377                -2.9319E-01 -8.3632E-01  3.0386E-02  8.8674E-01
                               -3.7409E-01  1.0616E+01 -4.6941E+01  2.5147E+03

           1    1.50035E+00    -2.7255E-02  1.1268E-03  3.2834E-01  3.2947E-01
ac ID =   33377                -1.6149E-02 -1.5826E+00 -4.0496E-02  1.5832E+00
                               -3.7413E-01  1.0620E+01 -4.6949E+01  2.5147E+03

           1    1.60034E+00    -1.9157E-02 -2.3775E-03  2.2113E-01  2.2198E-01
ac ID =   33377                -1.8932E-02 -1.3743E+00 -9.6304E-03  1.3745E+00
                               -3.7420E-01  1.0624E+01 -4.6957E+01  2.5147E+03

           1    1.70033E+00    -2.7031E-03 -5.4142E-04  5.8545E-02  5.8610E-02
ac ID =   33377                -4.0464E-02 -6.6943E-01  8.3284E-02  6.7581E-01
                               -3.7427E-01  1.0627E+01 -4.6965E+01  2.5147E+03

           1    1.80032E+00    -2.0222E-02  1.0263E-03  7.7672E-02  8.0268E-02
ac ID =   33377                 8.2920E-02 -1.1153E+00  1.2609E-01  1.1255E+00
                               -3.7434E-01  1.0632E+01 -4.6974E+01  2.5147E+03

           1    1.90031E+00    -7.9283E-03 -2.6821E-03  1.9127E-01  1.9145E-01
ac ID =   33377                 2.7138E-01 -8.2057E-01 -7.1734E-02  8.6725E-01
                               -3.7439E-01  1.0636E+01 -4.6984E+01  2.5147E+03

           1    2.00030E+00    -1.9352E-03 -4.3733E-03  1.5690E-01  1.5697E-01
ac ID =   33377                 2.0530E-01 -4.4495E-01 -1.4464E-01  5.1093E-01
                               -3.7444E-01  1.0641E+01 -4.6993E+01  2.5147E+03

           1    2.10029E+00    -2.5013E-02  2.2941E-03  2.9882E-03  2.5295E-02
ac ID =   33377                -7.4370E-02 -6.9294E-01  3.6942E-02  6.9789E-01
                               -3.7450E-01  1.0645E+01 -4.7003E+01  2.5147E+03

           1    2.20028E+00    -1.2713E-02  5.0491E-03  3.1731E-03  1.4042E-02
ac ID =   33377                -2.3816E-01 -6.5662E-01  2.4371E-02  6.9891E-01
                               -3.7456E-01  1.0650E+01 -4.7013E+01  2.5147E+03

           1    2.30027E+00     1.2800E-03  4.8573E-03  1.4905E-01  1.4913E-01
ac ID =   33377                -1.4843E-01 -8.1455E-01 -6.7455E-02  8.3071E-01
                               -3.7461E-01  1.0655E+01 -4.7024E+01  2.5147E+03

           1    2.40026E+00    -1.7933E-02 -1.7732E-03  1.8847E-01  1.8933E-01
ac ID =   33377                -1.5005E-01 -1.1872E+00  7.6777E-02  1.1991E+00
                               -3.7469E-01  1.0661E+01 -4.7035E+01  2.5147E+03

           1    2.50025E+00    -1.8306E-02  1.2796E-03  4.2277E-04  1.8355E-02
ac ID =   33377                -1.9695E-01 -8.8901E-01  1.3288E-01  9.2021E-01
                               -3.7479E-01  1.0665E+01 -4.7045E+01  2.5147E+03

           1    2.60024E+00    -6.5647E-03  5.8748E-03 -7.6940E-02  7.7443E-02
ac ID =   33377                -2.0714E-01 -1.8240E-01  3.4845E-02  2.7819E-01
                               -3.7490E-01  1.0671E+01 -4.7056E+01  2.5147E+03

           1    2.70023E+00    -1.2147E-02 -1.5299E-03  1.0142E-02  1.5898E-02
ac ID =   33377                 3.1741E-02 -2.1233E-01  3.7612E-02  2.1796E-01
                               -3.7501E-01  1.0676E+01 -4.7068E+01  2.5147E+03

           1    2.80022E+00    -5.7521E-03 -4.6924E-03  6.3231E-02  6.3666E-02
ac ID =   33377                 3.6565E-01 -1.3854E-01 -1.9174E-02  3.9149E-01
                               -3.7510E-01  1.0682E+01 -4.7079E+01  2.5147E+03

           1    2.90021E+00     4.9834E-03 -2.8484E-03 -9.9120E-03  1.1454E-02
ac ID =   33377                 1.4989E-01  3.1228E-01 -7.8836E-02  3.5525E-01
                               -3.7520E-01  1.0687E+01 -4.7090E+01  2.5147E+03

           1    3.00020E+00    -7.0946E-03  2.1847E-03 -8.8770E-02  8.9080E-02
ac ID =   33377                -3.6561E-02  7.5327E-02 -5.6472E-02  1.0099E-01
                               -3.7530E-01  1.0692E+01 -4.7101E+01  2.5147E+03

           1    3.10019E+00    -2.4984E-03  4.7704E-04 -9.4542E-03  9.7904E-03
ac ID =   33377                 4.0454E-02 -2.5207E-01 -3.3431E-02  2.5748E-01
                               -3.7538E-01  1.0698E+01 -4.7113E+01  2.5147E+03

           1    3.20018E+00     4.6813E-03  2.0437E-03  6.7952E-02  6.8144E-02
ac ID =   33377                -2.0038E-02 -3.1534E-01  1.7634E-02  3.1647E-01
                               -3.7545E-01  1.0703E+01 -4.7125E+01  2.5147E+03

           1    3.30017E+00     2.8393E-03  1.1619E-03  7.9506E-03  8.5220E-03
ac ID =   33377                -2.3210E-01 -2.8000E-01  1.0474E-01  3.7847E-01
                               -3.7554E-01  1.0708E+01 -4.7137E+01  2.5147E+03

           1    3.40016E+00     2.4205E-03  2.8714E-03 -1.0908E-01  1.0914E-01
ac ID =   33377                -2.9632E-01  7.2653E-02  9.8693E-02  3.2067E-01
                               -3.7565E-01  1.0714E+01 -4.7148E+01  2.5147E+03

           1    3.50015E+00     1.9501E-03  4.3989E-03 -1.4402E-01  1.4410E-01
ac ID =   33377                -1.9943E-01  4.2340E-01  4.7851E-02  4.7045E-01
                               -3.7576E-01  1.0719E+01 -4.7160E+01  2.5147E+03

           1    3.60014E+00     1.4821E-02 -2.0774E-03 -6.8143E-02  6.9767E-02
ac ID =   33377                 7.4089E-02  9.2593E-01 -8.1640E-02  9.3247E-01
                               -3.7586E-01  1.0725E+01 -4.7172E+01  2.5147E+03

           1    3.70013E+00     2.5849E-02 -4.8116E-03 -6.9585E-02  7.4387E-02
ac ID =   33377                 2.8910E-01  1.1283E+00 -2.4277E-01  1.1898E+00
                               -3.7595E-01  1.0731E+01 -4.7184E+01  2.5147E+03

           1    3.80012E+00     2.4101E-02 -1.7021E-03 -1.5832E-01  1.6016E-01
ac ID =   33377                 1.5955E-01  1.3699E+00 -1.6402E-01  1.3889E+00
                               -3.7604E-01  1.0737E+01 -4.7195E+01  2.5147E+03

           1    3.90011E+00     2.8117E-02  7.4798E-04 -2.2729E-01  2.2902E-01
ac ID =   33377                 9.9233E-02  1.4580E+00 -5.3884E-02  1.4624E+00
                               -3.7611E-01  1.0743E+01 -4.7207E+01  2.5147E+03

           1    4.00010E+00     2.7027E-02  8.5785E-04 -1.8491E-01  1.8688E-01
ac ID =   33377                -6.7371E-02  1.1996E+00  8.0621E-02  1.2042E+00
                               -3.7617E-01  1.0749E+01 -4.7219E+01  2.5147E+03

           1    4.10009E+00     3.1723E-02  1.3439E-03 -1.6288E-01  1.6594E-01
ac ID =   33377                -1.4123E-01  1.0722E+00  5.5414E-02  1.0829E+00
                               -3.7620E-01  1.0756E+01 -4.7231E+01  2.5147E+03

           1    4.20008E+00     3.0090E-02  4.3617E-03 -2.2093E-01  2.2301E-01
ac ID =   33377                -3.3266E-01  1.1434E+00 -2.3072E-03  1.1908E+00
                               -3.7627E-01  1.0764E+01 -4.7243E+01  2.5147E+03

           1    4.30007E+00     4.1691E-02  7.0320E-03 -3.2833E-01  3.3104E-01
ac ID =   33377                -4.6781E-01  1.6929E+00  9.9914E-04  1.7564E+00
                               -3.7635E-01  1.0772E+01 -4.7254E+01  2.5147E+03

           1    4.40006E+00     5.5929E-02  3.6401E-03 -3.0493E-01  3.1004E-01
ac ID =   33377                -1.6378E-01  2.0985E+00  4.7765E-02  2.1054E+00
                               -3.7644E-01  1.0781E+01 -4.7267E+01  2.5147E+03

           1    4.50005E+00     5.1360E-02 -6.8751E-04 -2.4117E-01  2.4658E-01
ac ID =   33377                 1.1167E-01  1.9624E+00  7.2334E-02  1.9670E+00
                               -3.7653E-01  1.0790E+01 -4.7279E+01  2.5147E+03

           1    4.60004E+00     6.6102E-02 -3.3553E-03 -3.0581E-01  3.1289E-01
ac ID =   33377                 1.8025E-01  2.2612E+00 -8.4720E-02  2.2699E+00
                               -3.7664E-01  1.0801E+01 -4.7291E+01  2.5147E+03

           1    4.70003E+00     6.7279E-02  3.2686E-04 -3.9347E-01  3.9918E-01
ac ID =   33377                 1.2369E-01  2.2949E+00 -9.6354E-02  2.3003E+00
                               -3.7674E-01  1.0813E+01 -4.7304E+01  2.5147E+03

           1    4.80002E+00     7.0097E-02 -8.3560E-04 -4.2814E-01  4.3384E-01
ac ID =   33377                 1.2607E-01  2.3162E+00  2.3097E-02  2.3197E+00
                               -3.7684E-01  1.0825E+01 -4.7316E+01  2.5147E+03

           1    4.90001E+00     7.3819E-02  3.4450E-03 -3.8233E-01  3.8941E-01
ac ID =   33377                -9.8504E-02  2.5201E+00  8.2413E-02  2.5233E+00
                               -3.7693E-01  1.0840E+01 -4.7330E+01  2.5147E+03

           1    5.00000E+00     7.4657E-02  4.0414E-03 -3.7901E-01  3.8631E-01
ac ID =   33377                -4.0688E-01  2.5229E+00  1.1408E-01  2.5580E+00
                               -3.7702E-01  1.0855E+01 -4.7343E+01  2.5147E+03

           1    5.10049E+00     8.3660E-02  3.6933E-04 -4.8621E-01  4.9336E-01
ac ID =   33377                -2.9491E-01  2.8864E+00 -7.0402E-02  2.9023E+00
                               -3.7715E-01  1.0872E+01 -4.7357E+01  2.5147E+03

           1    5.20048E+00     8.3557E-02  1.0254E-02 -5.1874E-01  5.2553E-01
ac ID =   33377                -5.1538E-01  3.1849E+00 -9.1483E-02  3.2277E+00
                               -3.7730E-01  1.0891E+01 -4.7371E+01  2.5147E+03

           1    5.30047E+00     8.7638E-02  7.0720E-03 -4.9243E-01  5.0022E-01
ac ID =   33377                -3.7721E-01  3.1091E+00  4.7058E-02  3.1323E+00
                               -3.7747E-01  1.0911E+01 -4.7385E+01  2.5147E+03

           1    5.40046E+00     1.0363E-01 -3.4716E-03 -5.1022E-01  5.2065E-01
ac ID =   33377                 1.2032E-01  3.4377E+00 -7.1877E-03  3.4398E+00
                               -3.7766E-01  1.0933E+01 -4.7400E+01  2.5147E+03

           1    5.50045E+00     1.0281E-01 -4.6898E-03 -5.9850E-01  6.0729E-01
ac ID =   33377                 7.3175E-02  3.4604E+00 -2.0321E-01  3.4671E+00
                               -3.7784E-01  1.0956E+01 -4.7415E+01  2.5147E+03

           1    5.60044E+00     9.8938E-02  6.4079E-03 -6.8637E-01  6.9349E-01
ac ID =   33377                -1.7089E-01  3.6679E+00 -2.2831E-01  3.6790E+00
                               -3.7804E-01  1.0980E+01 -4.7430E+01  2.5147E+03

           1    5.70043E+00     1.0709E-01 -2.2323E-03 -7.0412E-01  7.1222E-01
ac ID =   33377                 8.9673E-02  3.8218E+00  3.0706E-02  3.8230E+00
                               -3.7826E-01  1.1007E+01 -4.7446E+01  2.5147E+03

           1    5.80042E+00     1.1272E-01 -2.2760E-03 -6.7697E-01  6.8629E-01
ac ID =   33377                 8.8918E-02  3.7467E+00  1.1407E-01  3.7494E+00
                               -3.7844E-01  1.1035E+01 -4.7461E+01  2.5147E+03

           1    5.90041E+00     1.1728E-01  6.3061E-03 -7.1813E-01  7.2767E-01
ac ID =   33377                -5.2629E-01  4.1405E+00 -5.6583E-02  4.1742E+00
                               -3.7862E-01  1.1066E+01 -4.7477E+01  2.5147E+03

           1    6.00040E+00     1.1337E-01  1.1406E-02 -7.8661E-01  7.9482E-01
ac ID =   33377                -5.8842E-01  4.0702E+00  5.9220E-03  4.1125E+00
                               -3.7888E-01  1.1097E+01 -4.7493E+01  2.5147E+03

           1    6.10039E+00     1.3038E-01 -2.7304E-03 -7.9923E-01  8.0980E-01
ac ID =   33377                -1.0581E-01  4.3261E+00 -7.2630E-02  4.3280E+00
                               -3.7907E-01  1.1131E+01 -4.7510E+01  2.5147E+03

           1    6.20038E+00     1.2412E-01  2.9374E-03 -7.9965E-01  8.0923E-01
ac ID =   33377                -4.0237E-01  4.1313E+00 -3.2511E-02  4.1510E+00
                               -3.7925E-01  1.1167E+01 -4.7527E+01  2.5147E+03

           1    6.30037E+00     1.1912E-01  1.2272E-02 -8.3631E-01  8.4484E-01
ac ID =   33377                -4.0259E-01  4.1590E+00 -2.7436E-02  4.1785E+00
                               -3.7952E-01  1.1205E+01 -4.7544E+01  2.5147E+03

           1    6.40036E+00     1.2997E-01 -6.9084E-03 -9.3741E-01  9.4640E-01
ac ID =   33377                 1.3242E-01  4.6375E+00 -5.3851E-02  4.6397E+00
                               -3.7973E-01  1.1244E+01 -4.7560E+01  2.5147E+03

           1    6.50035E+00     1.4523E-01 -4.3757E-03 -9.9315E-01  1.0037E+00
ac ID =   33377                 3.8359E-02  5.1620E+00  2.9240E-02  5.1622E+00
                               -3.7990E-01  1.1286E+01 -4.7577E+01  2.5147E+03

           1    6.60034E+00     1.3041E-01  7.3506E-03 -9.8650E-01  9.9511E-01
ac ID =   33377                -2.1966E-01  5.0706E+00  1.4060E-01  5.0773E+00
                               -3.8012E-01  1.1330E+01 -4.7595E+01  2.5147E+03

           1    6.70033E+00     1.4776E-01  2.3068E-03 -1.0189E+00  1.0296E+00
ac ID =   33377                -1.9768E-01  5.4053E+00  1.5720E-01  5.4112E+00
                               -3.8030E-01  1.1375E+01 -4.7612E+01  2.5147E+03

           1    6.80032E+00     1.5863E-01 -6.5100E-03 -1.0720E+00  1.0837E+00
ac ID =   33377                -1.7067E-03  5.7871E+00 -2.0552E-02  5.7872E+00
                               -3.8044E-01  1.1423E+01 -4.7629E+01  2.5147E+03

           1    6.90031E+00     1.4327E-01  4.8871E-03 -1.1347E+00  1.1437E+00
ac ID =   33377                -6.3197E-01  5.6052E+00 -7.9577E-02  5.6413E+00
                               -3.8059E-01  1.1472E+01 -4.7646E+01  2.5147E+03

           1    7.00030E+00     1.5442E-01  1.1034E-02 -1.1556E+00  1.1660E+00
ac ID =   33377                -5.9770E-01  5.8647E+00  4.5111E-03  5.8951E+00
                               -3.8078E-01  1.1524E+01 -4.7663E+01  2.5147E+03

           1    7.10029E+00     1.6442E-01 -9.8360E-04 -1.1817E+00  1.1930E+00
ac ID =   33377                -1.7118E-01  5.9208E+00  1.0700E-01  5.9242E+00
                               -3.8091E-01  1.1577E+01 -4.7680E+01  2.5147E+03

           1    7.20028E+00     1.5999E-01 -5.0581E-03 -1.2771E+00  1.2871E+00
ac ID =   33377                -2.1561E-01  6.2084E+00 -6.5841E-02  6.2125E+00
                               -3.8104E-01  1.1633E+01 -4.7697E+01  2.5147E+03

           1    7.30027E+00     1.6646E-01  1.4018E-02 -1.3649E+00  1.3751E+00
ac ID =   33377                -5.3743E-01  6.6911E+00  4.9608E-02  6.7128E+00
                               -3.8121E-01  1.1690E+01 -4.7713E+01  2.5147E+03

           1    7.40026E+00     1.8356E-01 -4.7696E-03 -1.4024E+00  1.4143E+00
ac ID =   33377                 1.9636E-01  7.2103E+00 -6.3848E-02  7.2133E+00
                               -3.8134E-01  1.1750E+01 -4.7730E+01  2.5147E+03

           1    7.50025E+00     1.8822E-01 -3.7752E-03 -1.4140E+00  1.4264E+00
ac ID =   33377                -4.0282E-02  7.5880E+00 -4.0961E-02  7.5882E+00
                               -3.8142E-01  1.1811E+01 -4.7745E+01  2.5147E+03

           1    7.60024E+00     1.9030E-01  5.6644E-03 -1.4506E+00  1.4630E+00
ac ID =   33377                -2.0524E-01  7.5364E+00 -6.6459E-02  7.5395E+00
                               -3.8149E-01  1.1874E+01 -4.7761E+01  2.5147E+03

           1    7.70023E+00     1.8636E-01 -3.4317E-04 -1.5012E+00  1.5127E+00
ac ID =   33377                -2.1091E-01  7.5421E+00 -1.0763E-01  7.5458E+00
                               -3.8156E-01  1.1939E+01 -4.7775E+01  2.5147E+03

           1    7.80022E+00     1.9299E-01  2.3312E-03 -1.5480E+00  1.5600E+00
ac ID =   33377                -2.6136E-01  7.5646E+00 -1.6918E-01  7.5710E+00
                               -3.8159E-01  1.2007E+01 -4.7789E+01  2.5147E+03

           1    7.90021E+00     1.9347E-01  4.2386E-03 -1.5772E+00  1.5890E+00
ac ID =   33377                -5.0987E-01  7.7280E+00 -6.7582E-02  7.7451E+00
                               -3.8157E-01  1.2076E+01 -4.7803E+01  2.5147E+03

           1    8.00020E+00     2.0453E-01  6.6952E-03 -1.6193E+00  1.6322E+00
ac ID =   33377                -4.5166E-01  8.0805E+00 -1.5206E-02  8.0932E+00
                               -3.8156E-01  1.2146E+01 -4.7816E+01  2.5147E+03

           1    8.10019E+00     2.1182E-01 -1.5247E-03 -1.7079E+00  1.7210E+00
ac ID =   33377                -2.9761E-01  8.6473E+00 -3.7826E-02  8.6525E+00
                               -3.8155E-01  1.2219E+01 -4.7827E+01  2.5147E+03

           1    8.20018E+00     2.1216E-01  1.7891E-03 -1.7587E+00  1.7714E+00
ac ID =   33377                -2.9071E-01  8.9957E+00  5.7676E-02  9.0006E+00
                               -3.8150E-01  1.2293E+01 -4.7839E+01  2.5147E+03

           1    8.30017E+00     2.2724E-01  3.9219E-04 -1.7966E+00  1.8109E+00
ac ID =   33377                -1.6186E-01  9.4093E+00  3.4120E-02  9.4107E+00
                               -3.8140E-01  1.2370E+01 -4.7849E+01  2.5147E+03

           1    8.40016E+00     2.2985E-01 -3.9360E-03 -1.8292E+00  1.8436E+00
ac ID =   33377                 9.9399E-02  9.6206E+00  6.3215E-02  9.6213E+00
                               -3.8131E-01  1.2448E+01 -4.7858E+01  2.5147E+03

           1    8.50015E+00     2.2663E-01 -2.5298E-03 -1.8713E+00  1.8850E+00
ac ID =   33377                 5.2192E-02  9.7155E+00 -3.3865E-02  9.7157E+00
                               -3.8119E-01  1.2527E+01 -4.7866E+01  2.5147E+03

           1    8.60014E+00     2.2702E-01  3.4756E-03 -1.9361E+00  1.9494E+00
ac ID =   33377                -2.9562E-01  9.8582E+00 -5.9840E-02  9.8629E+00
                               -3.8103E-01  1.2608E+01 -4.7873E+01  2.5147E+03

           1    8.70013E+00     2.3135E-01  1.9959E-03 -1.9859E+00  1.9994E+00
ac ID =   33377                -3.3153E-01  9.8483E+00 -9.4673E-02  9.8544E+00
                               -3.8087E-01  1.2691E+01 -4.7878E+01  2.5147E+03

           1    8.80012E+00     2.4268E-01  8.2453E-03 -2.0309E+00  2.0454E+00
ac ID =   33377                -5.1295E-01  1.0174E+01 -4.9774E-02  1.0187E+01
                               -3.8070E-01  1.2775E+01 -4.7883E+01  2.5147E+03

           1    8.90011E+00     2.4810E-01  7.0612E-03 -2.0742E+00  2.0890E+00
ac ID =   33377                -6.1386E-01  1.0562E+01  3.6413E-02  1.0580E+01
                               -3.8047E-01  1.2861E+01 -4.7886E+01  2.5147E+03

           1    9.00010E+00     2.5737E-01  5.3034E-03 -2.1481E+00  2.1634E+00
ac ID =   33377                -4.8009E-01  1.1110E+01  2.4913E-02  1.1120E+01
                               -3.8020E-01  1.2949E+01 -4.7887E+01  2.5147E+03

           1    9.10009E+00     2.6419E-01  3.9449E-03 -2.1799E+00  2.1959E+00
ac ID =   33377                -2.5320E-01  1.1388E+01  4.5545E-02  1.1391E+01
                               -3.7996E-01  1.3038E+01 -4.7888E+01  2.5147E+03

           1    9.20008E+00     2.7525E-01 -2.2432E-03 -2.2139E+00  2.2310E+00
ac ID =   33377                 7.7549E-02  1.1572E+01 -1.9522E-02  1.1572E+01
                               -3.7969E-01  1.3128E+01 -4.7886E+01  2.5147E+03

           1    9.30007E+00     2.7379E-01  2.8065E-03 -2.2677E+00  2.2841E+00
ac ID =   33377                -2.3557E-01  1.1670E+01  2.4807E-02  1.1672E+01
                               -3.7933E-01  1.3220E+01 -4.7883E+01  2.5147E+03

           1    9.40006E+00     2.6699E-01 -1.3771E-03 -2.2885E+00  2.3040E+00
ac ID =   33377                 7.1669E-02  1.1739E+01 -6.6917E-02  1.1740E+01
                               -3.7898E-01  1.3314E+01 -4.7879E+01  2.5147E+03

           1    9.50005E+00     2.8396E-01 -1.5102E-03 -2.3496E+00  2.3667E+00
ac ID =   33377                -2.2132E-01  1.2204E+01 -1.1909E-01  1.2206E+01
                               -3.7860E-01  1.3408E+01 -4.7872E+01  2.5147E+03

           1    9.60004E+00     2.8007E-01  9.8891E-03 -2.3794E+00  2.3958E+00
ac ID =   33377                -5.6028E-01  1.2349E+01 -5.9357E-03  1.2362E+01
                               -3.7813E-01  1.3505E+01 -4.7864E+01  2.5147E+03

           1    9.70003E+00     2.9647E-01  7.3550E-03 -2.3824E+00  2.4007E+00
ac ID =   33377                -6.3191E-01  1.2592E+01  7.5227E-02  1.2608E+01
                               -3.7765E-01  1.3603E+01 -4.7855E+01  2.5147E+03

           1    9.80002E+00     2.9888E-01  2.9843E-03 -2.4286E+00  2.4469E+00
ac ID =   33377                -3.5978E-01  1.2946E+01 -5.2675E-02  1.2951E+01
                               -3.7719E-01  1.3702E+01 -4.7843E+01  2.5147E+03

           1    9.90001E+00     2.9152E-01  6.9234E-03 -2.4519E+00  2.4692E+00
ac ID =   33377                -5.7181E-01  1.2982E+01  9.5119E-02  1.2995E+01
                               -3.7664E-01  1.3802E+01 -4.7829E+01  2.5147E+03

           1    1.00005E+01     3.0798E-01  5.7970E-03 -2.4843E+00  2.5033E+00
ac ID =   33377                -4.4149E-01  1.3201E+01  1.3147E-01  1.3209E+01
                               -3.7610E-01  1.3904E+01 -4.7813E+01  2.5147E+03

           1    1.01005E+01     3.0714E-01 -5.1719E-03 -2.5190E+00  2.5376E+00
ac ID =   33377                 4.4336E-02  1.3367E+01  1.7949E-01  1.3369E+01
                               -3.7554E-01  1.4007E+01 -4.7795E+01  2.5147E+03

           1    1.02005E+01     3.2076E-01  3.6643E-03 -2.5618E+00  2.5818E+00
ac ID =   33377                -1.8107E-01  1.3679E+01 -8.4461E-02  1.3681E+01
                               -3.7491E-01  1.4111E+01 -4.7775E+01  2.5147E+03

           1    1.03005E+01     2.9661E-01  2.0600E-04 -2.5817E+00  2.5987E+00
ac ID =   33377                -6.1377E-02  1.3427E+01 -2.1087E-01  1.3429E+01
                               -3.7425E-01  1.4216E+01 -4.7753E+01  2.5147E+03

           1    1.04005E+01     3.1406E-01  8.7105E-04 -2.6026E+00  2.6215E+00
ac ID =   33377                -2.0486E-01  1.3637E+01 -5.4348E-02  1.3639E+01
                               -3.7356E-01  1.4322E+01 -4.7728E+01  2.5147E+03

           1    1.05004E+01     3.3306E-01  2.8145E-03 -2.6183E+00  2.6394E+00
ac ID =   33377                -2.6945E-01  1.4136E+01  1.3221E-01  1.4139E+01
                               -3.7284E-01  1.4428E+01 -4.7701E+01  2.5147E+03

           1    1.06004E+01     3.2953E-01  7.0858E-03 -2.6289E+00  2.6494E+00
ac ID =   33377                -3.7416E-01  1.3946E+01  1.2892E-01  1.3952E+01
                               -3.7210E-01  1.4536E+01 -4.7671E+01  2.5147E+03

           1    1.07004E+01     3.3324E-01  8.1548E-03 -2.6605E+00  2.6813E+00
ac ID =   33377                -4.4593E-01  1.4237E+01  5.7029E-02  1.4244E+01
                               -3.7132E-01  1.4645E+01 -4.7639E+01  2.5147E+03

           1    1.08004E+01     3.3028E-01 -4.7094E-03 -2.6477E+00  2.6682E+00
ac ID =   33377                -1.5451E-01  1.4132E+01  9.0418E-02  1.4133E+01
                               -3.7051E-01  1.4755E+01 -4.7605E+01  2.5147E+03

           1    1.09004E+01     3.6283E-01  8.3022E-03 -2.6970E+00  2.7213E+00
ac ID =   33377                -2.3733E-02  1.4573E+01  8.3433E-02  1.4573E+01
                               -3.6974E-01  1.4865E+01 -4.7568E+01  2.5147E+03

           1    1.10004E+01     3.3435E-01 -2.5865E-03 -2.7327E+00  2.7531E+00
ac ID =   33377                 8.0583E-02  1.4451E+01  2.8010E-01  1.4454E+01
                               -3.6887E-01  1.4977E+01 -4.7529E+01  2.5147E+03

           1    1.11004E+01     3.4985E-01 -3.2527E-03 -2.7292E+00  2.7516E+00
ac ID =   33377                 2.5363E-01  1.4612E+01  2.8956E-01  1.4617E+01
                               -3.6799E-01  1.5090E+01 -4.7487E+01  2.5147E+03

           1    1.12004E+01     3.6202E-01 -2.4115E-03 -2.7226E+00  2.7465E+00
ac ID =   33377                 9.4604E-02  1.5440E+01 -1.1355E-01  1.5440E+01
                               -3.6707E-01  1.5204E+01 -4.7443E+01  2.5147E+03

           1    1.13004E+01     3.5167E-01 -3.1909E-03 -2.7056E+00  2.7284E+00
ac ID =   33377                 2.2019E-01  1.4997E+01 -1.3871E-01  1.4999E+01
                               -3.6612E-01  1.5318E+01 -4.7396E+01  2.5147E+03

           1    1.14004E+01     3.5848E-01  1.2911E-03 -2.7189E+00  2.7424E+00
ac ID =   33377                -1.3027E-01  1.5140E+01  1.2780E-01  1.5141E+01
                               -3.6511E-01  1.5433E+01 -4.7347E+01  2.5147E+03

           1    1.15003E+01     3.6368E-01  8.4092E-04 -2.7108E+00  2.7351E+00
ac ID =   33377                -1.1565E-01  1.5282E+01  8.0903E-02  1.5283E+01
                               -3.6408E-01  1.5549E+01 -4.7296E+01  2.5147E+03

           1    1.16003E+01     3.6348E-01 -1.2250E-03 -2.6816E+00  2.7061E+00
ac ID =   33377                 5.0162E-03  1.5329E+01  1.8423E-01  1.5330E+01
                               -3.6303E-01  1.5666E+01 -4.7242E+01  2.5147E+03

           1    1.17003E+01     3.5310E-01  3.8686E-03 -2.6995E+00  2.7225E+00
ac ID =   33377                -4.4639E-02  1.5323E+01 -3.9150E-03  1.5323E+01
                               -3.6197E-01  1.5784E+01 -4.7186E+01  2.5147E+03

           1    1.18003E+01     3.6773E-01  1.4991E-04 -2.7074E+00  2.7322E+00
ac ID =   33377                 1.2935E-02  1.5524E+01 -1.1223E-01  1.5524E+01
                               -3.6087E-01  1.5903E+01 -4.7127E+01  2.5147E+03

           1    1.19003E+01     3.7291E-01 -1.2630E-02 -2.6922E+00  2.7179E+00
ac ID =   33377                 6.7491E-01  1.5623E+01 -6.5053E-02  1.5638E+01
                               -3.5974E-01  1.6022E+01 -4.7066E+01  2.5147E+03

           1    1.20003E+01     3.6775E-01 -9.1123E-04 -2.6629E+00  2.6881E+00
ac ID =   33377                 3.2891E-01  1.5459E+01  1.7953E-02  1.5462E+01
                               -3.5857E-01  1.6142E+01 -4.7002E+01  2.5147E+03

           1    1.21003E+01     3.7424E-01 -4.0874E-03 -2.6541E+00  2.6803E+00
ac ID =   33377                 3.7765E-01  1.5512E+01  3.2377E-02  1.5517E+01
                               -3.5737E-01  1.6262E+01 -4.6935E+01  2.5147E+03

           1    1.22003E+01     3.6703E-01 -1.4542E-03 -2.6021E+00  2.6278E+00
ac ID =   33377                 2.0398E-01  1.5222E+01 -5.9280E-02  1.5224E+01
                               -3.5610E-01  1.6383E+01 -4.6866E+01  2.5147E+03

           1    1.23003E+01     3.7130E-01  1.2528E-02 -2.5704E+00  2.5971E+00
ac ID =   33377                -6.5556E-02  1.4624E+01  7.1272E-02  1.4624E+01
                               -3.5475E-01  1.6504E+01 -4.6794E+01  2.5147E+03

           1    1.24003E+01     3.7079E-01 -4.7862E-03 -2.5417E+00  2.5686E+00
ac ID =   33377                 1.4743E-01  1.4782E+01 -8.4872E-02  1.4783E+01
                               -3.5333E-01  1.6626E+01 -4.6720E+01  2.5147E+03

           1    1.25002E+01     3.5637E-01  1.2776E-02 -2.5325E+00  2.5575E+00
ac ID =   33377                -3.5867E-01  1.4415E+01 -3.2649E-01  1.4423E+01
                               -3.5189E-01  1.6749E+01 -4.6644E+01  2.5147E+03

           1    1.26002E+01     3.4880E-01  6.6875E-03 -2.5057E+00  2.5298E+00
ac ID =   33377                -2.7958E-01  1.4191E+01 -3.5041E-01  1.4199E+01
                               -3.5039E-01  1.6872E+01 -4.6564E+01  2.5147E+03

           1    1.27002E+01     3.7435E-01 -5.2327E-03 -2.4635E+00  2.4918E+00
ac ID =   33377                 4.8172E-01  1.4585E+01 -2.5900E-01  1.4595E+01
                               -3.4883E-01  1.6995E+01 -4.6483E+01  2.5147E+03

           1    1.28002E+01     3.6787E-01  9.4837E-05 -2.4363E+00  2.4639E+00
ac ID =   33377                 5.2750E-01  1.4597E+01 -2.1593E-01  1.4608E+01
                               -3.4722E-01  1.7118E+01 -4.6399E+01  2.5147E+03

           1    1.29002E+01     3.4837E-01  1.0150E-02 -2.3858E+00  2.4111E+00
ac ID =   33377                 2.6647E-02  1.4076E+01 -2.7779E-01  1.4079E+01
                               -3.4553E-01  1.7242E+01 -4.6312E+01  2.5147E+03

           1    1.30002E+01     3.6994E-01 -3.5368E-03 -2.3547E+00  2.3835E+00
ac ID =   33377                 3.6625E-01  1.4186E+01 -4.3479E-01  1.4197E+01
                               -3.4383E-01  1.7367E+01 -4.6223E+01  2.5147E+03

           1    1.31002E+01     3.6448E-01 -8.5476E-03 -2.3123E+00  2.3408E+00
ac ID =   33377                 4.4059E-01  1.3865E+01 -2.3839E-01  1.3874E+01
                               -3.4200E-01  1.7491E+01 -4.6132E+01  2.5147E+03

           1    1.32002E+01     3.4152E-01  1.5377E-02 -2.2547E+00  2.2805E+00
ac ID =   33377                -4.1857E-01  1.3141E+01  2.1001E-01  1.3150E+01
                               -3.4015E-01  1.7616E+01 -4.6038E+01  2.5147E+03

           1    1.33002E+01     3.4763E-01  1.4386E-02 -2.2153E+00  2.2425E+00
ac ID =   33377                -4.1621E-01  1.2859E+01  4.6936E-01  1.2875E+01
                               -3.3832E-01  1.7742E+01 -4.5943E+01  2.5147E+03

           1    1.34002E+01     3.7012E-01 -4.4334E-03 -2.1867E+00  2.2178E+00
ac ID =   33377                 4.4951E-02  1.2991E+01 -7.1831E-02  1.2991E+01
                               -3.3641E-01  1.7868E+01 -4.5845E+01  2.5147E+03

           1    1.35001E+01     3.1333E-01  5.4456E-03 -2.1138E+00  2.1369E+00
ac ID =   33377                -2.5807E-01  1.1896E+01 -4.1209E-01  1.1906E+01
                               -3.3443E-01  1.7994E+01 -4.5745E+01  2.5147E+03

           1    1.36001E+01     3.4478E-01  2.5283E-02 -2.0501E+00  2.0791E+00
ac ID =   33377                -5.1368E-01  1.1932E+01  5.2231E-01  1.1954E+01
                               -3.3247E-01  1.8120E+01 -4.5643E+01  2.5147E+03

           1    1.37001E+01     3.6035E-01 -1.7154E-02 -2.0186E+00  2.0506E+00
ac ID =   33377                 1.0192E+00  1.1841E+01  6.7839E-01  1.1904E+01
                               -3.3045E-01  1.8246E+01 -4.5538E+01  2.5147E+03

           1    1.38001E+01     3.3876E-01 -6.0858E-03 -1.9680E+00  1.9969E+00
ac ID =   33377                 3.5131E-01  1.1173E+01  4.3432E-01  1.1187E+01
                               -3.2828E-01  1.8373E+01 -4.5432E+01  2.5147E+03

           1    1.39001E+01     3.0527E-01  5.7889E-03 -1.8787E+00  1.9034E+00
ac ID =   33377                 1.6649E-02  1.0212E+01 -2.4547E-01  1.0215E+01
                               -3.2611E-01  1.8500E+01 -4.5324E+01  2.5147E+03

           1    1.40001E+01     3.3972E-01  1.6996E-02 -1.8436E+00  1.8747E+00
ac ID =   33377                 1.5529E-01  1.0231E+01 -6.9883E-02  1.0232E+01
                               -3.2399E-01  1.8628E+01 -4.5214E+01  2.5147E+03

           1    1.41001E+01     3.3569E-01 -2.0790E-02 -1.8003E+00  1.8315E+00
ac ID =   33377                 3.7993E-01  1.0332E+01  3.4166E-01  1.0345E+01
                               -3.2161E-01  1.8755E+01 -4.5103E+01  2.5147E+03

           1    1.42001E+01     2.7915E-01  2.0135E-02 -1.7072E+00  1.7300E+00
ac ID =   33377                -7.5095E-01  8.7432E+00 -1.8082E-01  8.7772E+00
                               -3.1936E-01  1.8883E+01 -4.4989E+01  2.5147E+03

           1    1.43001E+01     3.3575E-01  1.3769E-02 -1.6748E+00  1.7082E+00
ac ID =   33377                -4.4156E-01  9.8802E+00 -1.4866E-01  9.8912E+00
                               -3.1717E-01  1.9011E+01 -4.4874E+01  2.5147E+03

           1    1.44001E+01     3.1417E-01 -1.3735E-02 -1.6323E+00  1.6623E+00
ac ID =   33377                 2.3467E-01  9.4724E+00  3.4459E-01  9.4815E+00
                               -3.1482E-01  1.9140E+01 -4.4758E+01  2.5147E+03

           1    1.45000E+01     2.5884E-01  1.1753E-03 -1.5515E+00  1.5729E+00
ac ID =   33377                 2.3350E-01  7.9841E+00 -1.2501E-02  7.9875E+00
                               -3.1255E-01  1.9269E+01 -4.4640E+01  2.5147E+03

           1    1.46000E+01     2.8994E-01  1.5774E-02 -1.4870E+00  1.5151E+00
ac ID =   33377                 2.6976E-01  7.8224E+00 -3.5498E-01  7.8351E+00
                               -3.1036E-01  1.9399E+01 -4.4521E+01  2.5147E+03

           1    1.47000E+01     3.1210E-01 -1.2468E-02 -1.4539E+00  1.4871E+00
ac ID =   33377                 3.0911E-01  7.7676E+00 -3.2203E-01  7.7804E+00
                               -3.0804E-01  1.9529E+01 -4.4401E+01  2.5147E+03

           1    1.48005E+01     2.6353E-01 -2.0170E-02 -1.4199E+00  1.4443E+00
ac ID =   33377                 7.5335E-01  6.9723E+00  2.6819E-01  7.0180E+00
                               -3.0573E-01  1.9660E+01 -4.4279E+01  2.5147E+03

           1    1.49005E+01     2.3642E-01  1.3597E-02 -1.3063E+00  1.3276E+00
ac ID =   33377                 9.4440E-02  6.3802E+00  8.8343E-01  6.4418E+00
                               -3.0344E-01  1.9791E+01 -4.4156E+01  2.5147E+03

           1    1.50005E+01     2.9008E-01  2.1880E-02 -1.2356E+00  1.2693E+00
ac ID =   33377                -4.0986E-01  6.7088E+00  4.1968E-02  6.7215E+00
                               -3.0107E-01  1.9921E+01 -4.4032E+01  2.5147E+03

           1    1.51005E+01     2.5011E-01 -9.7863E-03 -1.2092E+00  1.2349E+00
ac ID =   33377                -1.7527E-01  6.0697E+00 -5.2369E-01  6.0947E+00
                               -2.9858E-01  2.0053E+01 -4.3907E+01  2.5147E+03

           1    1.52005E+01     2.1284E-01 -2.1713E-02 -1.1028E+00  1.1233E+00
ac ID =   33377                 2.2243E-01  4.7890E+00 -3.9221E-01  4.8101E+00
                               -2.9618E-01  2.0184E+01 -4.3781E+01  2.5147E+03

           1    1.53005E+01     2.2395E-01  3.7575E-02 -1.0405E+00  1.0650E+00
ac ID =   33377                -7.6669E-01  4.7557E+00  6.7685E-01  4.8644E+00
                               -2.9376E-01  2.0316E+01 -4.3654E+01  2.5147E+03

           1    1.54005E+01     2.2363E-01  2.3739E-03 -9.5058E-01  9.7654E-01
ac ID =   33377                 4.6494E-01  4.3163E+00  1.2280E+00  4.5116E+00
                               -2.9132E-01  2.0447E+01 -4.3525E+01  2.5147E+03

           1    1.55004E+01     1.7405E-01 -3.4860E-02 -8.9687E-01  9.1427E-01
ac ID =   33377                 1.2693E+00  3.0229E+00  7.3977E-02  3.2795E+00
                               -2.8882E-01  2.0579E+01 -4.3396E+01  2.5147E+03

           1    1.56004E+01     1.8644E-01  4.4902E-03 -8.4108E-01  8.6151E-01
ac ID =   33377                 1.4445E-01  3.0916E+00 -5.3588E-01  3.1410E+00
                               -2.8628E-01  2.0710E+01 -4.3266E+01  2.5147E+03

           1    1.57004E+01     1.8428E-01  1.4024E-02 -7.6657E-01  7.8853E-01
ac ID =   33377                 1.7966E-01  2.4392E+00 -6.2055E-02  2.4466E+00
                               -2.8381E-01  2.0842E+01 -4.3135E+01  2.5147E+03

           1    1.58004E+01     1.7565E-01 -9.0857E-03 -6.9279E-01  7.1477E-01
ac ID =   33377                 1.0470E+00  2.8312E+00  4.6715E-01  3.0545E+00
                               -2.8128E-01  2.0973E+01 -4.3004E+01  2.5147E+03

           1    1.59004E+01     1.5220E-01 -1.8366E-02 -6.0811E-01  6.2714E-01
ac ID =   33377                 4.9111E-01  2.1853E+00 -3.5436E-02  2.2401E+00
                               -2.7855E-01  2.1105E+01 -4.2871E+01  2.5147E+03

           1    1.60004E+01     1.4905E-01  2.5958E-02 -5.5027E-01  5.7069E-01
ac ID =   33377                -9.4829E-01  2.8663E+00 -1.8154E-01  3.0245E+00
                               -2.7606E-01  2.1236E+01 -4.2738E+01  2.5147E+03

           1    1.61004E+01     1.7493E-01  7.4365E-03 -5.3130E-01  5.5941E-01
ac ID =   33377                 1.4662E-01  3.8454E+00 -1.7680E-01  3.8522E+00
                               -2.7351E-01  2.1367E+01 -4.2605E+01  2.5147E+03

           1    1.62004E+01     1.4840E-01 -2.1935E-02 -4.2707E-01  4.5266E-01
ac ID =   33377                 6.4335E-01  3.8959E+00 -2.2896E-02  3.9487E+00
                               -2.7083E-01  2.1498E+01 -4.2471E+01  2.5147E+03

           1    1.63004E+01     1.5781E-01  1.7493E-02 -3.5062E-01  3.8490E-01
ac ID =   33377                -1.2278E-01  4.1978E+00 -1.3779E-02  4.1997E+00
                               -2.6820E-01  2.1629E+01 -4.2337E+01  2.5147E+03

           1    1.64004E+01     1.6933E-01  4.6630E-04 -3.4120E-01  3.8090E-01
ac ID =   33377                 3.5448E-01  4.5183E+00 -2.2749E-02  4.5323E+00
                               -2.6568E-01  2.1759E+01 -4.2203E+01  2.5147E+03

           1    1.65003E+01     1.7161E-01 -2.4547E-02 -2.9753E-01  3.4434E-01
ac ID =   33377                 1.5180E+00  4.6686E+00  2.7817E-01  4.9171E+00
                               -2.6301E-01  2.1890E+01 -4.2069E+01  2.5147E+03

           1    1.66003E+01     1.5140E-01 -1.4622E-02 -1.9397E-01  2.4650E-01
ac ID =   33377                 5.6699E-01  4.5873E+00  7.6546E-01  4.6852E+00
                               -2.6019E-01  2.2020E+01 -4.1935E+01  2.5147E+03

           1    1.67003E+01     1.6830E-01  1.7875E-02 -1.4841E-01  2.2510E-01
ac ID =   33377                 3.9798E-01  4.6413E+00 -4.2379E-02  4.6585E+00
                               -2.5764E-01  2.2150E+01 -4.1801E+01  2.5147E+03

           1    1.68003E+01     1.7755E-01 -1.5636E-02 -1.0240E-01  2.0556E-01
ac ID =   33377                 5.8357E-01  5.5056E+00 -2.1711E-01  5.5407E+00
                               -2.5482E-01  2.2280E+01 -4.1667E+01  2.5147E+03

           1    1.69003E+01     1.4765E-01 -2.7781E-02 -3.1645E-02  1.5354E-01
ac ID =   33377                 4.6572E-01  5.0343E+00  8.0061E-02  5.0564E+00
                               -2.5191E-01  2.2409E+01 -4.1534E+01  2.5147E+03

           1    1.70003E+01     1.5083E-01  4.1116E-02  4.4550E-02  1.6256E-01
ac ID =   33377                -6.9907E-01  5.4993E+00  3.4045E-01  5.5540E+00
                               -2.4929E-01  2.2539E+01 -4.1401E+01  2.5147E+03

           1    1.71003E+01     1.5197E-01  8.9019E-03  8.7194E-02  1.7543E-01
ac ID =   33377                 4.9815E-02  5.1561E+00  3.9133E-01  5.1712E+00
                               -2.4648E-01  2.2668E+01 -4.1269E+01  2.5147E+03

           1    1.72003E+01     1.6800E-01 -2.9157E-02  1.5425E-01  2.2993E-01
ac ID =   33377                 7.6533E-01  5.4755E+00 -1.0717E-01  5.5297E+00
                               -2.4361E-01  2.2797E+01 -4.1137E+01  2.5147E+03

           1    1.73003E+01     1.1276E-01  9.3537E-03  2.1440E-01  2.4242E-01
ac ID =   33377                 1.4787E-01  3.9447E+00 -1.5346E-01  3.9505E+00
                               -2.4091E-01  2.2926E+01 -4.1007E+01  2.5147E+03

           1    1.74003E+01     1.3926E-01  1.8547E-02  2.3093E-01  2.7031E-01
ac ID =   33377                 3.0870E-01  4.4630E+00 -4.6777E-02  4.4739E+00
                               -2.3816E-01  2.3055E+01 -4.0877E+01  2.5147E+03

           1    1.75002E+01     1.3598E-01 -1.8622E-02  3.0431E-01  3.3383E-01
ac ID =   33377                 9.3019E-01  4.4500E+00 -5.4922E-02  4.5465E+00
                               -2.3528E-01  2.3184E+01 -4.0748E+01  2.5147E+03

           1    1.76002E+01     1.0781E-01 -2.5911E-02  3.7845E-01  3.9435E-01
ac ID =   33377                 9.3373E-01  3.4656E+00 -4.1939E-01  3.6136E+00
                               -2.3244E-01  2.3313E+01 -4.0621E+01  2.5147E+03

           1    1.77002E+01     1.1341E-01  1.8715E-02  3.9086E-01  4.0741E-01
ac ID =   33377                 2.2449E-02  3.5979E+00 -3.3207E-01  3.6133E+00
                               -2.2970E-01  2.3443E+01 -4.0495E+01  2.5147E+03

           1    1.78002E+01     1.1841E-01  1.6033E-03  4.3758E-01  4.5332E-01
ac ID =   33377                -3.0477E-01  3.3494E+00 -8.9334E-02  3.3644E+00
                               -2.2682E-01  2.3572E+01 -4.0370E+01  2.5147E+03

           1    1.79002E+01     8.8237E-02 -1.7832E-02  4.9165E-01  4.9982E-01
ac ID =   33377                 5.9392E-01  2.5324E+00 -6.6981E-03  2.6012E+00
                               -2.2403E-01  2.3701E+01 -4.0246E+01  2.5147E+03

           1    1.80002E+01     7.1884E-02  5.2059E-03  5.4591E-01  5.5064E-01
ac ID =   33377                -5.3659E-01  1.8314E+00  2.8393E-01  1.9294E+00
                               -2.2122E-01  2.3831E+01 -4.0124E+01  2.5147E+03

           1    1.81002E+01     9.3710E-02  2.0248E-02  5.7147E-01  5.7946E-01
ac ID =   33377                -4.7044E-01  1.8363E+00 -7.1125E-02  1.8969E+00
                               -2.1853E-01  2.3961E+01 -4.0004E+01  2.5147E+03

           1    1.82002E+01     8.9260E-02 -5.0571E-03  6.0448E-01  6.1105E-01
ac ID =   33377                 3.8773E-01  1.6885E+00  2.1604E-01  1.7458E+00
                               -2.1581E-01  2.4091E+01 -3.9885E+01  2.5147E+03

           1    1.83002E+01     4.7908E-02 -1.4915E-02  6.3652E-01  6.3849E-01
ac ID =   33377                 4.4443E-01  8.5835E-01  4.4964E-01  1.0661E+00
                               -2.1303E-01  2.4222E+01 -3.9768E+01  2.5147E+03

           1    1.84002E+01     7.3060E-02  1.4890E-02  6.8401E-01  6.8806E-01
ac ID =   33377                 1.1107E-01  8.5226E-01 -1.4088E-01  8.7094E-01
                               -2.1043E-01  2.4352E+01 -3.9653E+01  2.5147E+03

           1    1.85001E+01     7.4174E-02 -3.6577E-03  7.0647E-01  7.1036E-01
ac ID =   33377                 4.5198E-01  4.8235E-01 -4.3090E-01  7.8907E-01
                               -2.0772E-01  2.4484E+01 -3.9539E+01  2.5147E+03

           1    1.86001E+01     4.7059E-02 -7.4522E-04  7.4394E-01  7.4543E-01
ac ID =   33377                 4.0355E-01 -9.1534E-02 -1.4595E-01  4.3879E-01
                               -2.0504E-01  2.4615E+01 -3.9428E+01  2.5147E+03

           1    1.87001E+01     4.5673E-02 -1.4418E-02  7.6854E-01  7.7003E-01
ac ID =   33377                 2.4998E-01 -4.0974E-01  7.0019E-02  4.8505E-01
                               -2.0236E-01  2.4747E+01 -3.9318E+01  2.5147E+03

           1    1.88001E+01     5.7792E-02  3.7551E-02  7.8957E-01  7.9257E-01
ac ID =   33377                -1.0256E+00 -3.6831E-01  3.9661E-01  1.1597E+00
                               -1.9980E-01  2.4879E+01 -3.9210E+01  2.5147E+03

           1    1.89001E+01     4.6787E-02 -1.1163E-02  8.4691E-01  8.4827E-01
ac ID =   33377                 1.8263E-01 -7.7102E-01 -1.7673E-01  8.1183E-01
                               -1.9721E-01  2.5012E+01 -3.9105E+01  2.5147E+03

           1    1.90001E+01     1.8616E-02 -7.9071E-03  8.7829E-01  8.7852E-01
ac ID =   33377                -1.8892E-01 -1.7920E+00 -1.7743E-01  1.8107E+00
                               -1.9463E-01  2.5145E+01 -3.9001E+01  2.5147E+03

           1    1.91001E+01     4.8484E-02  2.5047E-02  8.7652E-01  8.7822E-01
ac ID =   33377                -5.2686E-01 -1.3190E+00 -4.2334E-02  1.4209E+00
                               -1.9219E-01  2.5279E+01 -3.8900E+01  2.5147E+03

           1    1.92001E+01     4.0216E-02 -6.2809E-04  9.1951E-01  9.2039E-01
ac ID =   33377                -2.6696E-02 -1.9818E+00  1.2291E-01  1.9858E+00
                               -1.8971E-01  2.5413E+01 -3.8801E+01  2.5147E+03

           1    1.93001E+01     2.3706E-02 -1.6858E-02  9.6040E-01  9.6084E-01
ac ID =   33377                 9.3188E-01 -2.4519E+00 -1.5749E-01  2.6277E+00
                               -1.8728E-01  2.5548E+01 -3.8704E+01  2.5147E+03

           1    1.94001E+01     1.9633E-02  5.8778E-03  9.5580E-01  9.5602E-01
ac ID =   33377                 4.6003E-02 -2.7053E+00 -2.0833E-01  2.7137E+00
                               -1.8487E-01  2.5683E+01 -3.8609E+01  2.5147E+03

           1    1.95000E+01     2.3943E-02  1.1427E-02  9.5658E-01  9.5695E-01
ac ID =   33377                -7.7748E-02 -3.0783E+00 -1.6947E-01  3.0839E+00
                               -1.8250E-01  2.5819E+01 -3.8517E+01  2.5147E+03

           1    1.96000E+01     1.2905E-02 -2.1194E-02  9.8656E-01  9.8688E-01
ac ID =   33377                 5.9415E-01 -3.3759E+00 -3.8048E-02  3.4280E+00
                               -1.8010E-01  2.5956E+01 -3.8427E+01  2.5147E+03

           1    1.97005E+01     2.1280E-03  9.8165E-03  9.9657E-01  9.9662E-01
ac ID =   33377                -2.0591E-01 -4.1160E+00  1.3563E-01  4.1234E+00
                               -1.7776E-01  2.6093E+01 -3.8339E+01  2.5147E+03

           1    1.98005E+01     2.3061E-02  1.6036E-02  1.0088E+00  1.0092E+00
ac ID =   33377                -5.6452E-01 -3.6859E+00  3.5203E-01  3.7455E+00
                               -1.7546E-01  2.6231E+01 -3.8253E+01  2.5147E+03

           1    1.99005E+01     2.1607E-02 -2.3663E-03  1.0104E+00  1.0106E+00
ac ID =   33377                -1.7561E-01 -4.1936E+00  3.5439E-01  4.2122E+00
                               -1.7318E-01  2.6369E+01 -3.8171E+01  2.5147E+03

           1    2.00005E+01     2.8431E-03 -8.0579E-04  1.0314E+00  1.0314E+00
ac ID =   33377                 3.9859E-02 -4.5175E+00 -1.0647E-01  4.5189E+00
                               -1.7099E-01  2.6508E+01 -3.8090E+01  2.5147E+03

           1    2.01005E+01     6.9041E-03  7.2268E-03  1.0361E+00  1.0362E+00
ac ID =   33377                -1.5386E-01 -4.6072E+00 -1.9719E-01  4.6140E+00
                               -1.6878E-01  2.6648E+01 -3.8012E+01  2.5147E+03

           1    2.02005E+01     1.9302E-02  6.2791E-03  1.0306E+00  1.0308E+00
ac ID =   33377                 1.6760E-01 -4.6161E+00 -3.3956E-02  4.6193E+00
                               -1.6665E-01  2.6788E+01 -3.7937E+01  2.5147E+03

           1    2.03005E+01    -1.0320E-03 -8.0432E-03  1.0394E+00  1.0394E+00
ac ID =   33377                 5.6503E-01 -4.9405E+00 -4.7995E-02  4.9729E+00
                               -1.6454E-01  2.6929E+01 -3.7864E+01  2.5147E+03

           1    2.04005E+01     5.8291E-03 -5.7754E-03  1.0231E+00  1.0231E+00
ac ID =   33377                 3.9822E-01 -5.3562E+00 -1.0794E-02  5.3710E+00
                               -1.6240E-01  2.7070E+01 -3.7793E+01  2.5147E+03

           1    2.05004E+01     2.4433E-02  7.5699E-03  1.0075E+00  1.0079E+00
ac ID =   33377                -9.0560E-02 -4.9959E+00 -2.0635E-01  5.0010E+00
                               -1.6029E-01  2.7212E+01 -3.7725E+01  2.5147E+03

           1    2.06004E+01     2.9529E-03  1.8525E-03  1.0255E+00  1.0255E+00
ac ID =   33377                 1.8816E-01 -5.5628E+00 -1.0862E-01  5.5671E+00
                               -1.5827E-01  2.7355E+01 -3.7659E+01  2.5147E+03

           1    2.07004E+01     5.3066E-03  4.8717E-03  1.0023E+00  1.0023E+00
ac ID =   33377                -7.8321E-02 -5.8050E+00  2.0648E-01  5.8092E+00
                               -1.5620E-01  2.7498E+01 -3.7595E+01  2.5147E+03

           1    2.08004E+01     4.8888E-03  2.1516E-04  1.0032E+00  1.0032E+00
ac ID =   33377                -1.7142E-01 -5.9350E+00  2.8116E-01  5.9441E+00
                               -1.5416E-01  2.7642E+01 -3.7534E+01  2.5147E+03

           1    2.09004E+01     1.4191E-02  2.0590E-02  9.9730E-01  9.9761E-01
ac ID =   33377                -5.3490E-01 -5.9967E+00 -2.1220E-02  6.0205E+00
                               -1.5225E-01  2.7786E+01 -3.7476E+01  2.5147E+03

           1    2.10004E+01    -1.0638E-03 -8.0521E-03  9.9434E-01  9.9438E-01
ac ID =   33377                 3.6927E-01 -6.3615E+00 -3.8053E-01  6.3836E+00
                               -1.5031E-01  2.7932E+01 -3.7420E+01  2.5147E+03

           1    2.11004E+01    -4.5258E-04 -8.8799E-04  9.5989E-01  9.5989E-01
ac ID =   33377                 2.6663E-01 -6.6729E+00 -3.5992E-01  6.6879E+00
                               -1.4837E-01  2.8077E+01 -3.7365E+01  2.5147E+03

           1    2.12004E+01     3.7022E-03  7.9141E-03  9.5068E-01  9.5072E-01
ac ID =   33377                 2.2962E-01 -6.4196E+00 -1.3785E-01  6.4252E+00
                               -1.4654E-01  2.8224E+01 -3.7314E+01  2.5147E+03

           1    2.13004E+01     1.5562E-02 -1.1805E-03  9.3594E-01  9.3607E-01
ac ID =   33377                 2.1438E-01 -6.8609E+00  4.2698E-02  6.8644E+00
                               -1.4464E-01  2.8370E+01 -3.7264E+01  2.5147E+03

           1    2.14004E+01    -4.5318E-03 -8.1582E-03  9.1382E-01  9.1386E-01
ac ID =   33377                 6.5248E-01 -6.9712E+00  8.0162E-02  7.0021E+00
                               -1.4278E-01  2.8518E+01 -3.7217E+01  2.5147E+03

           1    2.15003E+01     1.9339E-02  7.3286E-03  8.9220E-01  8.9244E-01
ac ID =   33377                 1.7212E-01 -6.7240E+00  1.9354E-01  6.7289E+00
                               -1.4095E-01  2.8666E+01 -3.7171E+01  2.5147E+03

           1    2.16003E+01     2.1982E-02  1.5272E-02  8.7866E-01  8.7907E-01
ac ID =   33377                -5.0289E-01 -6.8650E+00  8.2843E-02  6.8839E+00
                               -1.3912E-01  2.8814E+01 -3.7128E+01  2.5147E+03

           1    2.17003E+01     1.5185E-02 -1.3287E-02  8.5865E-01  8.5889E-01
ac ID =   33377                 2.3630E-01 -7.0676E+00 -1.0126E-01  7.0723E+00
                               -1.3732E-01  2.8963E+01 -3.7087E+01  2.5147E+03

           1    2.18003E+01     2.7085E-02  5.8146E-03  8.2998E-01  8.3045E-01
ac ID =   33377                -2.0638E-01 -7.0143E+00 -6.0220E-03  7.0173E+00
                               -1.3557E-01  2.9112E+01 -3.7048E+01  2.5147E+03

           1    2.19003E+01     2.9335E-02  1.6599E-02  8.1187E-01  8.1257E-01
ac ID =   33377                -1.7800E-01 -6.9246E+00  6.5115E-02  6.9272E+00
                               -1.3385E-01  2.9262E+01 -3.7011E+01  2.5147E+03

           1    2.20003E+01     4.1055E-02  2.1184E-03  7.8620E-01  7.8728E-01
ac ID =   33377                 5.3009E-02 -6.9854E+00  1.1254E-01  6.9865E+00
                               -1.3215E-01  2.9412E+01 -3.6976E+01  2.5147E+03

           1    2.21003E+01     3.7045E-02 -9.6418E-03  7.5618E-01  7.5715E-01
ac ID =   33377                 5.9886E-01 -7.1248E+00 -2.1485E-01  7.1531E+00
                               -1.3050E-01  2.9563E+01 -3.6943E+01  2.5147E+03

           1    2.22003E+01     5.0101E-02  2.2824E-03  7.3315E-01  7.3486E-01
ac ID =   33377                 1.0060E-01 -6.8960E+00 -3.5654E-01  6.9059E+00
                               -1.2878E-01  2.9714E+01 -3.6911E+01  2.5147E+03

           1    2.23003E+01     4.9233E-02  1.1231E-02  6.9110E-01  6.9294E-01
ac ID =   33377                 8.5994E-02 -6.9476E+00 -5.2985E-02  6.9483E+00
                               -1.2718E-01  2.9865E+01 -3.6881E+01  2.5147E+03

           1    2.24003E+01     4.7056E-02 -2.2589E-03  6.5620E-01  6.5789E-01
ac ID =   33377                 3.6671E-01 -7.2366E+00  3.7124E-01  7.2554E+00
                               -1.2554E-01  3.0016E+01 -3.6853E+01  2.5147E+03

           1    2.25002E+01     6.2136E-02 -3.9196E-04  6.2286E-01  6.2595E-01
ac ID =   33377                -1.0500E-01 -7.2791E+00  2.8371E-02  7.2799E+00
                               -1.2387E-01  3.0168E+01 -3.6827E+01  2.5147E+03

           1    2.26002E+01     5.5646E-02  1.5894E-02  5.8221E-01  5.8507E-01
ac ID =   33377                -6.9744E-01 -7.5619E+00 -3.5315E-01  7.6022E+00
                               -1.2231E-01  3.0320E+01 -3.6802E+01  2.5147E+03

           1    2.27002E+01     5.8610E-02  7.0750E-03  5.5539E-01  5.5852E-01
ac ID =   33377                -1.5165E-01 -8.0264E+00 -3.4883E-01  8.0354E+00
                               -1.2078E-01  3.0472E+01 -3.6778E+01  2.5147E+03

           1    2.28002E+01     5.8422E-02 -1.1444E-03  5.1143E-01  5.1475E-01
ac ID =   33377                -1.6965E-01 -8.0134E+00 -5.1373E-02  8.0153E+00
                               -1.1923E-01  3.0624E+01 -3.6756E+01  2.5147E+03

           1    2.29002E+01     5.9399E-02  1.1823E-02  4.6541E-01  4.6934E-01
ac ID =   33377                -2.1395E-01 -8.2348E+00  4.6965E-02  8.2377E+00
                               -1.1778E-01  3.0776E+01 -3.6734E+01  2.5147E+03

           1    2.30002E+01     5.6115E-02  9.6335E-03  4.3703E-01  4.4072E-01
ac ID =   33377                -2.7856E-01 -8.6749E+00  4.2418E-02  8.6795E+00
                               -1.1633E-01  3.0929E+01 -3.6714E+01  2.5147E+03

           1    2.31002E+01     5.7600E-02 -9.7245E-03  3.9529E-01  3.9958E-01
ac ID =   33377                 4.6706E-01 -8.8958E+00 -3.5059E-01  8.9150E+00
                               -1.1490E-01  3.1081E+01 -3.6695E+01  2.5147E+03

           1    2.32002E+01     6.7155E-02  4.3456E-03  3.5520E-01  3.6152E-01
ac ID =   33377                 1.2605E-01 -9.1242E+00 -2.7903E-01  9.1293E+00
                               -1.1348E-01  3.1234E+01 -3.6677E+01  2.5147E+03

           1    2.33002E+01     5.5161E-02  1.8259E-02  3.1950E-01  3.2474E-01
ac ID =   33377                -4.5602E-01 -9.6358E+00  1.9055E-01  9.6485E+00
                               -1.1209E-01  3.1387E+01 -3.6660E+01  2.5147E+03

           1    2.34002E+01     6.1865E-02  4.8669E-05  2.7654E-01  2.8337E-01
ac ID =   33377                 6.4913E-02 -9.9920E+00  5.7047E-02  9.9924E+00
                               -1.1072E-01  3.1540E+01 -3.6644E+01  2.5147E+03

           1    2.35001E+01     6.8709E-02  3.4201E-03  2.3537E-01  2.4522E-01
ac ID =   33377                -3.1857E-01 -1.0183E+01 -2.4516E-01  1.0191E+01
                               -1.0936E-01  3.1692E+01 -3.6628E+01  2.5147E+03

           1    2.36001E+01     6.8881E-02  2.1667E-02  2.0186E-01  2.1439E-01
ac ID =   33377                -7.5695E-01 -1.0422E+01 -2.1685E-01  1.0452E+01
                               -1.0803E-01  3.1845E+01 -3.6613E+01  2.5147E+03

           1    2.37001E+01     6.9792E-02  6.1320E-03  1.5864E-01  1.7342E-01
ac ID =   33377                -3.9149E-01 -1.0798E+01 -3.9789E-02  1.0805E+01
                               -1.0677E-01  3.1998E+01 -3.6598E+01  2.5147E+03

           1    2.38001E+01     7.2117E-02  1.8830E-03  1.2271E-01  1.4235E-01
ac ID =   33377                 6.0050E-02 -1.0736E+01 -1.4528E-01  1.0738E+01
                               -1.0555E-01  3.2150E+01 -3.6583E+01  2.5147E+03

           1    2.39001E+01     8.1235E-02  7.4749E-03  8.9389E-02  1.2102E-01
ac ID =   33377                -2.7970E-01 -1.0758E+01 -1.0049E-01  1.0762E+01
                               -1.0431E-01  3.2303E+01 -3.6569E+01  2.5147E+03

           1    2.40001E+01     7.4659E-02  9.2220E-03  5.2626E-02  9.1806E-02
ac ID =   33377                -6.4777E-02 -1.1041E+01 -1.1524E-01  1.1042E+01
                               -1.0313E-01  3.2455E+01 -3.6555E+01  2.5147E+03

           1    2.41001E+01     8.9287E-02 -4.9941E-03  1.5261E-02  9.0719E-02
ac ID =   33377                 3.9826E-01 -1.0988E+01 -5.0476E-02  1.0996E+01
                               -1.0194E-01  3.2607E+01 -3.6541E+01  2.5147E+03

           1    2.42001E+01     9.3424E-02  3.0795E-03 -1.9929E-02  9.5575E-02
ac ID =   33377                -5.7738E-02 -1.1029E+01 -8.1084E-02  1.1030E+01
                               -1.0074E-01  3.2759E+01 -3.6527E+01  2.5147E+03

           1    2.43001E+01     1.0110E-01  1.4610E-02 -5.8169E-02  1.1755E-01
ac ID =   33377                -3.6526E-01 -1.0983E+01 -3.1161E-01  1.0994E+01
                               -9.9588E-02  3.2911E+01 -3.6513E+01  2.5147E+03

           1    2.44001E+01     1.0169E-01  2.6382E-03 -9.5632E-02  1.3962E-01
ac ID =   33377                -4.1794E-01 -1.0941E+01 -2.6272E-01  1.0952E+01
                               -9.8404E-02  3.3063E+01 -3.6499E+01  2.5147E+03

           1    2.45005E+01     1.0624E-01 -5.4091E-04 -1.4164E-01  1.7705E-01
ac ID =   33377                -5.5206E-02 -1.0887E+01 -6.8070E-02  1.0887E+01
                               -9.7286E-02  3.3215E+01 -3.6484E+01  2.5147E+03

           1    2.46005E+01     1.3010E-01  1.5757E-02 -1.8325E-01  2.2529E-01
ac ID =   33377                -5.9128E-01 -1.0544E+01  1.2681E-01  1.0562E+01
                               -9.6186E-02  3.3366E+01 -3.6470E+01  2.5147E+03

           1    2.47005E+01     1.2063E-01  1.2500E-02 -2.1250E-01  2.4467E-01
ac ID =   33377                -3.1768E-01 -1.0605E+01  5.5922E-02  1.0610E+01
                               -9.5092E-02  3.3517E+01 -3.6455E+01  2.5147E+03

           1    2.48005E+01     1.2475E-01 -1.1030E-02 -2.4000E-01  2.7071E-01
ac ID =   33377                 3.1006E-01 -1.0481E+01 -1.4344E-01  1.0486E+01
                               -9.4001E-02  3.3668E+01 -3.6439E+01  2.5147E+03

           1    2.49005E+01     1.3787E-01 -2.2930E-04 -2.8028E-01  3.1235E-01
ac ID =   33377                 2.6190E-01 -1.0523E+01 -1.1646E-01  1.0527E+01
                               -9.2951E-02  3.3818E+01 -3.6423E+01  2.5147E+03

