 LSTC 50th% Full_FE H-III Dummy (Beta Version, February 17, 2019)        
                    ls-dyna smp s R16 R16.0_619_d222963 date 03/18/2025

{BEGIN LEGEND}
 Entity #        Title
    22626                                                                                     
{END LEGEND}




 n o d a l   p r i n t   o u t   f o r   t i m e  s t e p       1                              ( at time 0.0000000E+00 )

 nodal point  x-disp     y-disp      z-disp      x-vel       y-vel       z-vel      x-accl      y-accl      z-accl      x-coor      y-coor      z-coor
    22626  0.00000E+00 0.00000E+00 0.00000E+00 0.00000E+00 0.00000E+00 0.00000E+00 0.00000E+00 0.00000E+00 0.00000E+00 4.65938E+00-2.81908E+01-4.49817E+01



 n o d a l   p r i n t   o u t   f o r   t i m e  s t e p       1                              ( at time 0.0000000E+00 )

 nodal point  x-rot      y-rot       z-rot       x-rot vel   y-rot vel   z-rot vel   x-rot acc   y-rot acc   z-rot acc
    22626  0.00000E+00 0.00000E+00 0.00000E+00 0.00000E+00 0.00000E+00 0.00000E+00 0.00000E+00 0.00000E+00 0.00000E+00



 n o d a l   p r i n t   o u t   f o r   t i m e  s t e p     201                              ( at time 9.9989993E-02 )

 nodal point  x-disp     y-disp      z-disp      x-vel       y-vel       z-vel      x-accl      y-accl      z-accl      x-coor      y-coor      z-coor
    22626  2.73575E-07 1.73669E-06-5.34278E-05 4.19751E-05 2.55596E-04-1.46819E-03 4.19793E-04 2.55621E-03-1.46834E-02 4.65938E+00-2.81908E+01-4.49818E+01



 n o d a l   p r i n t   o u t   f o r   t i m e  s t e p     201                              ( at time 9.9989993E-02 )

 nodal point  x-rot      y-rot       z-rot       x-rot vel   y-rot vel   z-rot vel   x-rot acc   y-rot acc   z-rot acc
    22626 -5.98981E-08-8.38467E-09-5.45921E-09-5.86955E-06-9.69950E-07-9.27110E-07-5.87014E-05-9.70047E-06-9.27203E-06



 n o d a l   p r i n t   o u t   f o r   t i m e  s t e p     401                              ( at time 1.9997999E-01 )

 nodal point  x-disp     y-disp      z-disp      x-vel       y-vel       z-vel      x-accl      y-accl      z-accl      x-coor      y-coor      z-coor
    22626  1.73096E-05 3.61746E-04-6.67588E-04 2.96223E-05 7.81149E-03-1.21545E-02-1.23541E-04 7.55665E-02-1.06874E-01 4.65939E+00-2.81905E+01-4.49824E+01



 n o d a l   p r i n t   o u t   f o r   t i m e  s t e p     401                              ( at time 1.9997999E-01 )

 nodal point  x-rot      y-rot       z-rot       x-rot vel   y-rot vel   z-rot vel   x-rot acc   y-rot acc   z-rot acc
    22626 -2.81979E-06-3.37131E-07-3.34513E-07-3.94439E-05-1.74366E-06-2.26969E-06-3.35778E-04-7.73786E-06-1.34272E-05



 n o d a l   p r i n t   o u t   f o r   t i m e  s t e p     601                              ( at time 2.9996998E-01 )

 nodal point  x-disp     y-disp      z-disp      x-vel       y-vel       z-vel      x-accl      y-accl      z-accl      x-coor      y-coor      z-coor
    22626  2.73904E-05 1.24008E-03-2.33844E-03 4.19007E-04 8.45023E-03-1.92545E-02 3.89423E-03 6.38798E-03-7.10064E-02 4.65940E+00-2.81896E+01-4.49841E+01



 n o d a l   p r i n t   o u t   f o r   t i m e  s t e p     601                              ( at time 2.9996998E-01 )

 nodal point  x-rot      y-rot       z-rot       x-rot vel   y-rot vel   z-rot vel   x-rot acc   y-rot acc   z-rot acc
    22626 -5.38463E-06-3.90095E-07-6.42325E-07-1.53984E-05-5.43913E-06-6.66308E-06 2.40480E-04-3.69584E-05-4.39382E-05



 n o d a l   p r i n t   o u t   f o r   t i m e  s t e p     801                              ( at time 3.9995997E-01 )

 nodal point  x-disp     y-disp      z-disp      x-vel       y-vel       z-vel      x-accl      y-accl      z-accl      x-coor      y-coor      z-coor
    22626  2.60327E-05 2.16243E-03-4.28287E-03-3.15197E-04 1.07411E-02-2.10875E-02-7.34278E-03 2.29107E-02-1.83325E-02 4.65940E+00-2.81887E+01-4.49860E+01



 n o d a l   p r i n t   o u t   f o r   t i m e  s t e p     801                              ( at time 3.9995997E-01 )

 nodal point  x-rot      y-rot       z-rot       x-rot vel   y-rot vel   z-rot vel   x-rot acc   y-rot acc   z-rot acc
    22626 -7.61714E-06-1.25032E-06-9.80774E-07-4.49246E-05-6.22543E-06-1.52724E-06-2.95292E-04-7.86374E-06 5.13635E-05



 n o d a l   p r i n t   o u t   f o r   t i m e  s t e p    1001                              ( at time 4.9994997E-01 )

 nodal point  x-disp     y-disp      z-disp      x-vel       y-vel       z-vel      x-accl      y-accl      z-accl      x-coor      y-coor      z-coor
    22626  3.71408E-06 3.43652E-03-6.74480E-03-2.37106E-04 1.41508E-02-2.87090E-02 7.80995E-04 3.41004E-02-7.62221E-02 4.65938E+00-2.81874E+01-4.49885E+01



 n o d a l   p r i n t   o u t   f o r   t i m e  s t e p    1001                              ( at time 4.9994997E-01 )

 nodal point  x-rot      y-rot       z-rot       x-rot vel   y-rot vel   z-rot vel   x-rot acc   y-rot acc   z-rot acc
    22626 -1.35607E-05-1.16522E-06-9.50169E-07-8.41373E-05 3.20816E-06 4.02503E-06-3.92166E-04 9.43453E-05 5.55283E-05



 n o d a l   p r i n t   o u t   f o r   t i m e  s t e p    1201                              ( at time 5.9993996E-01 )

 nodal point  x-disp     y-disp      z-disp      x-vel       y-vel       z-vel      x-accl      y-accl      z-accl      x-coor      y-coor      z-coor
    22626 -8.84490E-07 5.01224E-03-9.71614E-03 4.64822E-05 1.67006E-02-3.09911E-02 2.83616E-03 2.55010E-02-2.28234E-02 4.65937E+00-2.81858E+01-4.49914E+01



 n o d a l   p r i n t   o u t   f o r   t i m e  s t e p    1201                              ( at time 5.9993996E-01 )

 nodal point  x-rot      y-rot       z-rot       x-rot vel   y-rot vel   z-rot vel   x-rot acc   y-rot acc   z-rot acc
    22626 -2.02872E-05-8.86929E-07-9.58058E-07-5.90511E-05 3.85047E-06-2.04005E-06 2.50887E-04 6.42377E-06-6.06569E-05



 n o d a l   p r i n t   o u t   f o r   t i m e  s t e p    1401                              ( at time 6.9992995E-01 )

 nodal point  x-disp     y-disp      z-disp      x-vel       y-vel       z-vel      x-accl      y-accl      z-accl      x-coor      y-coor      z-coor
    22626 -5.09880E-05 6.85041E-03-1.31710E-02-4.89078E-04 1.96591E-02-3.89687E-02-5.35614E-03 2.95882E-02-7.97840E-02 4.65932E+00-2.81840E+01-4.49949E+01



 n o d a l   p r i n t   o u t   f o r   t i m e  s t e p    1401                              ( at time 6.9992995E-01 )

 nodal point  x-rot      y-rot       z-rot       x-rot vel   y-rot vel   z-rot vel   x-rot acc   y-rot acc   z-rot acc
    22626 -2.62090E-05-9.01519E-07-6.32659E-07-7.08742E-05 4.00909E-07 3.84050E-06-1.18242E-04-3.44991E-05 5.88114E-05



 n o d a l   p r i n t   o u t   f o r   t i m e  s t e p    1601                              ( at time 7.9991994E-01 )

 nodal point  x-disp     y-disp      z-disp      x-vel       y-vel       z-vel      x-accl      y-accl      z-accl      x-coor      y-coor      z-coor
    22626 -8.02777E-05 8.98676E-03-1.74643E-02-4.98364E-04 2.21619E-02-4.51192E-02-9.28697E-05 2.50305E-02-6.15111E-02 4.65929E+00-2.81818E+01-4.49992E+01



 n o d a l   p r i n t   o u t   f o r   t i m e  s t e p    1601                              ( at time 7.9991994E-01 )

 nodal point  x-rot      y-rot       z-rot       x-rot vel   y-rot vel   z-rot vel   x-rot acc   y-rot acc   z-rot acc
    22626 -3.43984E-05-8.77980E-07-5.15148E-07-9.18905E-05-4.83470E-06 1.56204E-06-2.10185E-04-5.23613E-05-2.27869E-05



 n o d a l   p r i n t   o u t   f o r   t i m e  s t e p    1801                              ( at time 8.9990994E-01 )

 nodal point  x-disp     y-disp      z-disp      x-vel       y-vel       z-vel      x-accl      y-accl      z-accl      x-coor      y-coor      z-coor
    22626 -1.16909E-04 1.12542E-02-2.19905E-02-2.90002E-04 2.40423E-02-4.55899E-02 2.08383E-03 1.88055E-02-4.70741E-03 4.65926E+00-2.81796E+01-4.50037E+01



 n o d a l   p r i n t   o u t   f o r   t i m e  s t e p    1801                              ( at time 8.9990994E-01 )

 nodal point  x-rot      y-rot       z-rot       x-rot vel   y-rot vel   z-rot vel   x-rot acc   y-rot acc   z-rot acc
    22626 -4.28174E-05-9.58724E-07-5.02477E-07-8.26463E-05 1.96610E-06-7.47420E-07 9.24516E-05 6.80148E-05-2.30969E-05



 n o d a l   p r i n t   o u t   f o r   t i m e  s t e p    2001                              ( at time 9.9989993E-01 )

 nodal point  x-disp     y-disp      z-disp      x-vel       y-vel       z-vel      x-accl      y-accl      z-accl      x-coor      y-coor      z-coor
    22626 -1.52025E-04 1.37912E-02-2.67304E-02-3.51558E-05 2.65026E-02-5.00355E-02 2.54872E-03 2.46054E-02-4.44609E-02 4.65922E+00-2.81770E+01-4.50084E+01



 n o d a l   p r i n t   o u t   f o r   t i m e  s t e p    2001                              ( at time 9.9989993E-01 )

 nodal point  x-rot      y-rot       z-rot       x-rot vel   y-rot vel   z-rot vel   x-rot acc   y-rot acc   z-rot acc
    22626 -5.18505E-05-9.08998E-07-4.38579E-07-1.06192E-04 1.17837E-06-3.01189E-06-2.35484E-04-7.87812E-06-2.26470E-05



 n o d a l   p r i n t   o u t   f o r   t i m e  s t e p    2201                              ( at time 1.0998899E+00 )

 nodal point  x-disp     y-disp      z-disp      x-vel       y-vel       z-vel      x-accl      y-accl      z-accl      x-coor      y-coor      z-coor
    22626 -1.59825E-04 1.65322E-02-3.20558E-02-3.45003E-04 2.88837E-02-5.60776E-02-3.09878E-03 2.38133E-02-6.04264E-02 4.65921E+00-2.81743E+01-4.50138E+01



 n o d a l   p r i n t   o u t   f o r   t i m e  s t e p    2201                              ( at time 1.0998899E+00 )

 nodal point  x-rot      y-rot       z-rot       x-rot vel   y-rot vel   z-rot vel   x-rot acc   y-rot acc   z-rot acc
    22626 -6.29452E-05-1.00482E-06-7.50153E-07-1.03738E-04-7.61450E-06-2.05897E-06 2.45422E-05-8.79375E-05 9.53011E-06



 n o d a l   p r i n t   o u t   f o r   t i m e  s t e p    2401                              ( at time 1.1998799E+00 )

 nodal point  x-disp     y-disp      z-disp      x-vel       y-vel       z-vel      x-accl      y-accl      z-accl      x-coor      y-coor      z-coor
    22626 -1.89817E-04 1.94752E-02-3.79327E-02-1.93858E-04 3.02255E-02-6.12096E-02 1.51160E-03 1.34191E-02-5.13253E-02 4.65919E+00-2.81714E+01-4.50197E+01



 n o d a l   p r i n t   o u t   f o r   t i m e  s t e p    2401                              ( at time 1.1998799E+00 )

 nodal point  x-rot      y-rot       z-rot       x-rot vel   y-rot vel   z-rot vel   x-rot acc   y-rot acc   z-rot acc
    22626 -7.29516E-05-1.61474E-06-9.91285E-07-1.01374E-04-7.19210E-06-2.98725E-06 2.36460E-05 4.22446E-06-9.28369E-06



 n o d a l   p r i n t   o u t   f o r   t i m e  s t e p    2601                              ( at time 1.2998699E+00 )

 nodal point  x-disp     y-disp      z-disp      x-vel       y-vel       z-vel      x-accl      y-accl      z-accl      x-coor      y-coor      z-coor
    22626 -2.23861E-04 2.26249E-02-4.42079E-02-2.47531E-04 3.25965E-02-6.40511E-02-5.36782E-04 2.37131E-02-2.84177E-02 4.65915E+00-2.81682E+01-4.50259E+01



 n o d a l   p r i n t   o u t   f o r   t i m e  s t e p    2601                              ( at time 1.2998699E+00 )

 nodal point  x-rot      y-rot       z-rot       x-rot vel   y-rot vel   z-rot vel   x-rot acc   y-rot acc   z-rot acc
    22626 -8.39960E-05-2.17135E-06-1.24710E-06-1.29362E-04-4.05986E-08-1.44590E-06-2.79911E-04 7.15221E-05 1.54151E-05



 n o d a l   p r i n t   o u t   f o r   t i m e  s t e p    2801                              ( at time 1.3998599E+00 )

 nodal point  x-disp     y-disp      z-disp      x-vel       y-vel       z-vel      x-accl      y-accl      z-accl      x-coor      y-coor      z-coor
    22626 -2.51509E-04 2.59924E-02-5.07121E-02-4.45239E-04 3.45172E-02-6.66682E-02-1.97728E-03 1.92082E-02-2.61740E-02 4.65912E+00-2.81648E+01-4.50324E+01



 n o d a l   p r i n t   o u t   f o r   t i m e  s t e p    2801                              ( at time 1.3998599E+00 )

 nodal point  x-rot      y-rot       z-rot       x-rot vel   y-rot vel   z-rot vel   x-rot acc   y-rot acc   z-rot acc
    22626 -9.73980E-05-2.01125E-06-1.34592E-06-1.36844E-04-3.11639E-07 1.73492E-06-7.48302E-05-2.71068E-06 3.18113E-05



 n o d a l   p r i n t   o u t   f o r   t i m e  s t e p    3001                              ( at time 1.4998499E+00 )

 nodal point  x-disp     y-disp      z-disp      x-vel       y-vel       z-vel      x-accl      y-accl      z-accl      x-coor      y-coor      z-coor
    22626 -2.96327E-04 2.95912E-02-5.77242E-02-4.49293E-04 3.72825E-02-7.39865E-02-4.05434E-05 2.76560E-02-7.31901E-02 4.65908E+00-2.81612E+01-4.50394E+01



 n o d a l   p r i n t   o u t   f o r   t i m e  s t e p    3001                              ( at time 1.4998499E+00 )

 nodal point  x-rot      y-rot       z-rot       x-rot vel   y-rot vel   z-rot vel   x-rot acc   y-rot acc   z-rot acc
    22626 -1.10707E-04-2.03201E-06-1.27183E-06-1.28733E-04-9.69705E-07-1.70727E-06 8.11214E-05-6.58132E-06-3.44253E-05



 n o d a l   p r i n t   o u t   f o r   t i m e  s t e p    3201                              ( at time 1.5998399E+00 )

 nodal point  x-disp     y-disp      z-disp      x-vel       y-vel       z-vel      x-accl      y-accl      z-accl      x-coor      y-coor      z-coor
    22626 -3.60127E-04 3.34891E-02-6.54465E-02-5.86831E-04 4.05455E-02-7.97043E-02-1.37552E-03 3.26331E-02-5.71842E-02 4.65901E+00-2.81573E+01-4.50472E+01



 n o d a l   p r i n t   o u t   f o r   t i m e  s t e p    3201                              ( at time 1.5998399E+00 )

 nodal point  x-rot      y-rot       z-rot       x-rot vel   y-rot vel   z-rot vel   x-rot acc   y-rot acc   z-rot acc
    22626 -1.23312E-04-2.14826E-06-1.09958E-06-1.34684E-04-2.88952E-06 3.17200E-06-5.95188E-05-1.92001E-05 4.87975E-05



 n o d a l   p r i n t   o u t   f o r   t i m e  s t e p    3401                              ( at time 1.6998299E+00 )

 nodal point  x-disp     y-disp      z-disp      x-vel       y-vel       z-vel      x-accl      y-accl      z-accl      x-coor      y-coor      z-coor
    22626 -4.21783E-04 3.76416E-02-7.35823E-02-7.27120E-04 4.22416E-02-8.25887E-02-1.40303E-03 1.69630E-02-2.88470E-02 4.65895E+00-2.81532E+01-4.50553E+01



 n o d a l   p r i n t   o u t   f o r   t i m e  s t e p    3401                              ( at time 1.6998299E+00 )

 nodal point  x-rot      y-rot       z-rot       x-rot vel   y-rot vel   z-rot vel   x-rot acc   y-rot acc   z-rot acc
    22626 -1.37610E-04-2.15278E-06-9.09726E-07-1.47492E-04 1.62830E-06 3.93537E-06-1.28092E-04 4.51828E-05 7.63448E-06



 n o d a l   p r i n t   o u t   f o r   t i m e  s t e p    3601                              ( at time 1.7998199E+00 )

 nodal point  x-disp     y-disp      z-disp      x-vel       y-vel       z-vel      x-accl      y-accl      z-accl      x-coor      y-coor      z-coor
    22626 -4.84898E-04 4.19002E-02-8.19598E-02-5.10646E-04 4.32754E-02-8.48717E-02 2.16496E-03 1.03391E-02-2.28320E-02 4.65889E+00-2.81489E+01-4.50637E+01



 n o d a l   p r i n t   o u t   f o r   t i m e  s t e p    3601                              ( at time 1.7998199E+00 )

 nodal point  x-rot      y-rot       z-rot       x-rot vel   y-rot vel   z-rot vel   x-rot acc   y-rot acc   z-rot acc
    22626 -1.52822E-04-2.06454E-06-7.79229E-07-1.49883E-04 1.46820E-06-1.50327E-06-2.39121E-05-1.60112E-06-5.43919E-05



 n o d a l   p r i n t   o u t   f o r   t i m e  s t e p    3801                              ( at time 1.8998099E+00 )

 nodal point  x-disp     y-disp      z-disp      x-vel       y-vel       z-vel      x-accl      y-accl      z-accl      x-coor      y-coor      z-coor
    22626 -5.44130E-04 4.63775E-02-9.06358E-02-5.18377E-04 4.60802E-02-8.88749E-02-7.73139E-05 2.80505E-02-4.00354E-02 4.65883E+00-2.81445E+01-4.50724E+01



 n o d a l   p r i n t   o u t   f o r   t i m e  s t e p    3801                              ( at time 1.8998099E+00 )

 nodal point  x-rot      y-rot       z-rot       x-rot vel   y-rot vel   z-rot vel   x-rot acc   y-rot acc   z-rot acc
    22626 -1.67677E-04-1.85519E-06-6.50495E-07-1.49816E-04-1.61086E-06-5.58001E-07 6.76295E-07-3.07938E-05 9.45365E-06



 n o d a l   p r i n t   o u t   f o r   t i m e  s t e p    4001                              ( at time 1.9997999E+00 )

 nodal point  x-disp     y-disp      z-disp      x-vel       y-vel       z-vel      x-accl      y-accl      z-accl      x-coor      y-coor      z-coor
    22626 -5.95004E-04 5.10272E-02-9.97453E-02-5.46276E-04 4.71726E-02-9.31093E-02-2.79017E-04 1.09252E-02-4.23490E-02 4.65878E+00-2.81398E+01-4.50815E+01



 n o d a l   p r i n t   o u t   f o r   t i m e  s t e p    4001                              ( at time 1.9997999E+00 )

 nodal point  x-rot      y-rot       z-rot       x-rot vel   y-rot vel   z-rot vel   x-rot acc   y-rot acc   z-rot acc
    22626 -1.82767E-04-2.09070E-06-7.01015E-07-1.55956E-04-4.58362E-06-1.85821E-07-6.14133E-05-2.97305E-05 3.72217E-06



 n o d a l   p r i n t   o u t   f o r   t i m e  s t e p    4201                              ( at time 2.0997899E+00 )

 nodal point  x-disp     y-disp      z-disp      x-vel       y-vel       z-vel      x-accl      y-accl      z-accl      x-coor      y-coor      z-coor
    22626 -6.49125E-04 5.57837E-02-1.09162E-01-5.61484E-04 4.81946E-02-9.53033E-02-1.52096E-04 1.02209E-02-2.19418E-02 4.65873E+00-2.81350E+01-4.50909E+01



 n o d a l   p r i n t   o u t   f o r   t i m e  s t e p    4201                              ( at time 2.0997899E+00 )

 nodal point  x-rot      y-rot       z-rot       x-rot vel   y-rot vel   z-rot vel   x-rot acc   y-rot acc   z-rot acc
    22626 -1.97947E-04-2.48127E-06-8.64069E-07-1.49991E-04-1.51125E-06 2.14041E-06 5.96576E-05 3.07268E-05 2.32647E-05



 n o d a l   p r i n t   o u t   f o r   t i m e  s t e p    4401                              ( at time 2.1997798E+00 )

 nodal point  x-disp     y-disp      z-disp      x-vel       y-vel       z-vel      x-accl      y-accl      z-accl      x-coor      y-coor      z-coor
    22626 -7.07799E-04 6.06673E-02-1.18761E-01-4.96008E-04 4.91581E-02-9.67341E-02 6.54824E-04 9.63636E-03-1.43096E-02 4.65867E+00-2.81302E+01-4.51005E+01



 n o d a l   p r i n t   o u t   f o r   t i m e  s t e p    4401                              ( at time 2.1997798E+00 )

 nodal point  x-rot      y-rot       z-rot       x-rot vel   y-rot vel   z-rot vel   x-rot acc   y-rot acc   z-rot acc
    22626 -2.13320E-04-2.58822E-06-8.62540E-07-1.59103E-04-1.60942E-06-1.09521E-06-9.11265E-05-9.81796E-07-3.23595E-05



 n o d a l   p r i n t   o u t   f o r   t i m e  s t e p    4601                              ( at time 2.2997698E+00 )

 nodal point  x-disp     y-disp      z-disp      x-vel       y-vel       z-vel      x-accl      y-accl      z-accl      x-coor      y-coor      z-coor
    22626 -7.62986E-04 6.56143E-02-1.28510E-01-6.46131E-04 5.01857E-02-9.87366E-02-1.50137E-03 1.02773E-02-2.00273E-02 4.65861E+00-2.81252E+01-4.51102E+01



 n o d a l   p r i n t   o u t   f o r   t i m e  s t e p    4601                              ( at time 2.2997698E+00 )

 nodal point  x-rot      y-rot       z-rot       x-rot vel   y-rot vel   z-rot vel   x-rot acc   y-rot acc   z-rot acc
    22626 -2.29837E-04-2.52188E-06-8.70916E-07-1.61354E-04 8.58038E-07-1.00150E-06-2.25108E-05 2.46770E-05 9.37191E-07



 n o d a l   p r i n t   o u t   f o r   t i m e  s t e p    4801                              ( at time 2.3997598E+00 )

 nodal point  x-disp     y-disp      z-disp      x-vel       y-vel       z-vel      x-accl      y-accl      z-accl      x-coor      y-coor      z-coor
    22626 -8.37423E-04 7.07390E-02-1.38609E-01-7.65262E-04 5.20362E-02-1.03259E-01-1.19143E-03 1.85061E-02-4.52259E-02 4.65854E+00-2.81201E+01-4.51203E+01



 n o d a l   p r i n t   o u t   f o r   t i m e  s t e p    4801                              ( at time 2.3997598E+00 )

 nodal point  x-rot      y-rot       z-rot       x-rot vel   y-rot vel   z-rot vel   x-rot acc   y-rot acc   z-rot acc
    22626 -2.45590E-04-2.51432E-06-5.99722E-07-1.55244E-04-6.52909E-08 4.22958E-06 6.11065E-05-9.23422E-06 5.23161E-05



 n o d a l   p r i n t   o u t   f o r   t i m e  s t e p    5001                              ( at time 2.4997498E+00 )

 nodal point  x-disp     y-disp      z-disp      x-vel       y-vel       z-vel      x-accl      y-accl      z-accl      x-coor      y-coor      z-coor
    22626 -9.18590E-04 7.60402E-02-1.49106E-01-9.25896E-04 5.34371E-02-1.05951E-01-1.60650E-03 1.40104E-02-2.69231E-02 4.65846E+00-2.81148E+01-4.51308E+01



 n o d a l   p r i n t   o u t   f o r   t i m e  s t e p    5001                              ( at time 2.4997498E+00 )

 nodal point  x-rot      y-rot       z-rot       x-rot vel   y-rot vel   z-rot vel   x-rot acc   y-rot acc   z-rot acc
    22626 -2.61162E-04-2.39282E-06-3.37667E-07-1.54670E-04 1.76342E-06 4.44949E-06 5.73693E-06 1.82889E-05 2.19927E-06



 n o d a l   p r i n t   o u t   f o r   t i m e  s t e p    5201                              ( at time 2.5997398E+00 )

 nodal point  x-disp     y-disp      z-disp      x-vel       y-vel       z-vel      x-accl      y-accl      z-accl      x-coor      y-coor      z-coor
    22626 -1.00938E-03 8.13921E-02-1.59710E-01-9.91545E-04 5.34916E-02-1.06023E-01-6.56559E-04 5.45065E-04-7.21066E-04 4.65837E+00-2.81094E+01-4.51414E+01



 n o d a l   p r i n t   o u t   f o r   t i m e  s t e p    5201                              ( at time 2.5997398E+00 )

 nodal point  x-rot      y-rot       z-rot       x-rot vel   y-rot vel   z-rot vel   x-rot acc   y-rot acc   z-rot acc
    22626 -2.76670E-04-2.06592E-06 5.47641E-08-1.51506E-04 5.13367E-06 4.89070E-06 3.16462E-05 3.37060E-05 4.41261E-06



 n o d a l   p r i n t   o u t   f o r   t i m e  s t e p    5401                              ( at time 2.6997298E+00 )

 nodal point  x-disp     y-disp      z-disp      x-vel       y-vel       z-vel      x-accl      y-accl      z-accl      x-coor      y-coor      z-coor
    22626 -1.10746E-03 8.67281E-02-1.70314E-01-8.14824E-04 5.35651E-02-1.06228E-01 1.76738E-03 7.35445E-04-2.05485E-03 4.65827E+00-2.81041E+01-4.51520E+01



 n o d a l   p r i n t   o u t   f o r   t i m e  s t e p    5401                              ( at time 2.6997298E+00 )

 nodal point  x-rot      y-rot       z-rot       x-rot vel   y-rot vel   z-rot vel   x-rot acc   y-rot acc   z-rot acc
    22626 -2.92384E-04-1.62847E-06 5.78484E-07-1.63074E-04 5.33806E-06 3.53133E-06-1.15691E-04 2.04406E-06-1.35951E-05



 n o d a l   p r i n t   o u t   f o r   t i m e  s t e p    5601                              ( at time 2.7997198E+00 )

 nodal point  x-disp     y-disp      z-disp      x-vel       y-vel       z-vel      x-accl      y-accl      z-accl      x-coor      y-coor      z-coor
    22626 -1.19452E-03 9.21213E-02-1.80982E-01-8.86604E-04 5.42799E-02-1.07484E-01-7.17867E-04 7.14836E-03-1.25571E-02 4.65818E+00-2.80987E+01-4.51627E+01



 n o d a l   p r i n t   o u t   f o r   t i m e  s t e p    5601                              ( at time 2.7997198E+00 )

 nodal point  x-rot      y-rot       z-rot       x-rot vel   y-rot vel   z-rot vel   x-rot acc   y-rot acc   z-rot acc
    22626 -3.07870E-04-1.11568E-06 9.95046E-07-1.44646E-04 3.12171E-06 4.38215E-06 1.84300E-04-2.21658E-05 8.50909E-06



 n o d a l   p r i n t   o u t   f o r   t i m e  s t e p    5801                              ( at time 2.8997098E+00 )

 nodal point  x-disp     y-disp      z-disp      x-vel       y-vel       z-vel      x-accl      y-accl      z-accl      x-coor      y-coor      z-coor
    22626 -1.27569E-03 9.75421E-02-1.91832E-01-7.40541E-04 5.41906E-02-1.09468E-01 1.46078E-03-8.92782E-04-1.98466E-02 4.65810E+00-2.80933E+01-4.51736E+01



 n o d a l   p r i n t   o u t   f o r   t i m e  s t e p    5801                              ( at time 2.8997098E+00 )

 nodal point  x-rot      y-rot       z-rot       x-rot vel   y-rot vel   z-rot vel   x-rot acc   y-rot acc   z-rot acc
    22626 -3.21820E-04-9.21735E-07 1.29405E-06-1.40108E-04 6.48740E-07 3.67308E-06 4.53847E-05-2.47321E-05-7.09150E-06



 n o d a l   p r i n t   o u t   f o r   t i m e  s t e p    6001                              ( at time 2.9996998E+00 )

 nodal point  x-disp     y-disp      z-disp      x-vel       y-vel       z-vel      x-accl      y-accl      z-accl      x-coor      y-coor      z-coor
    22626 -1.35929E-03 1.02933E-01-2.02795E-01-7.27904E-04 5.35780E-02-1.09337E-01 1.26380E-04-6.12673E-03 1.31583E-03 4.65802E+00-2.80879E+01-4.51845E+01



 n o d a l   p r i n t   o u t   f o r   t i m e  s t e p    6001                              ( at time 2.9996998E+00 )

 nodal point  x-rot      y-rot       z-rot       x-rot vel   y-rot vel   z-rot vel   x-rot acc   y-rot acc   z-rot acc
    22626 -3.36597E-04-8.82978E-07 1.47760E-06-1.50261E-04 4.21895E-07 2.42793E-06-1.01540E-04-2.26868E-06-1.24527E-05



 n o d a l   p r i n t   o u t   f o r   t i m e  s t e p    6201                              ( at time 3.0996898E+00 )

 nodal point  x-disp     y-disp      z-disp      x-vel       y-vel       z-vel      x-accl      y-accl      z-accl      x-coor      y-coor      z-coor
    22626 -1.42814E-03 1.08282E-01-2.13683E-01-7.43050E-04 5.35981E-02-1.08914E-01-1.51476E-04 2.01111E-04 4.22930E-03 4.65795E+00-2.80825E+01-4.51954E+01



 n o d a l   p r i n t   o u t   f o r   t i m e  s t e p    6201                              ( at time 3.0996898E+00 )

 nodal point  x-rot      y-rot       z-rot       x-rot vel   y-rot vel   z-rot vel   x-rot acc   y-rot acc   z-rot acc
    22626 -3.51633E-04-8.10032E-07 1.73592E-06-1.49239E-04 3.93551E-08 4.39287E-06 1.02157E-05-3.82578E-06 1.96514E-05



 n o d a l   p r i n t   o u t   f o r   t i m e  s t e p    6401                              ( at time 3.1996798E+00 )

 nodal point  x-disp     y-disp      z-disp      x-vel       y-vel       z-vel      x-accl      y-accl      z-accl      x-coor      y-coor      z-coor
    22626 -1.49384E-03 1.13660E-01-2.24665E-01-6.48968E-04 5.39978E-02-1.10858E-01 9.40914E-04 3.99789E-03-1.94431E-02 4.65788E+00-2.80772E+01-4.52064E+01



 n o d a l   p r i n t   o u t   f o r   t i m e  s t e p    6401                              ( at time 3.1996798E+00 )

 nodal point  x-rot      y-rot       z-rot       x-rot vel   y-rot vel   z-rot vel   x-rot acc   y-rot acc   z-rot acc
    22626 -3.66474E-04-6.85347E-07 1.88483E-06-1.42157E-04 1.52570E-06 1.29675E-06 7.08274E-05 1.48649E-05-3.09643E-05



 n o d a l   p r i n t   o u t   f o r   t i m e  s t e p    6601                              ( at time 3.2996698E+00 )

 nodal point  x-disp     y-disp      z-disp      x-vel       y-vel       z-vel      x-accl      y-accl      z-accl      x-coor      y-coor      z-coor
    22626 -1.57202E-03 1.19081E-01-2.35856E-01-8.25546E-04 5.42976E-02-1.12738E-01-1.76596E-03 2.99763E-03-1.88047E-02 4.65780E+00-2.80717E+01-4.52176E+01



 n o d a l   p r i n t   o u t   f o r   t i m e  s t e p    6601                              ( at time 3.2996698E+00 )

 nodal point  x-rot      y-rot       z-rot       x-rot vel   y-rot vel   z-rot vel   x-rot acc   y-rot acc   z-rot acc
    22626 -3.80616E-04-5.13180E-07 2.14352E-06-1.38063E-04 2.35960E-06 2.72067E-06 4.09490E-05 8.33987E-06 1.42407E-05



 n o d a l   p r i n t   o u t   f o r   t i m e  s t e p    6801                              ( at time 3.3996598E+00 )

 nodal point  x-disp     y-disp      z-disp      x-vel       y-vel       z-vel      x-accl      y-accl      z-accl      x-coor      y-coor      z-coor
    22626 -1.65946E-03 1.24510E-01-2.47149E-01-9.68613E-04 5.40582E-02-1.13028E-01-1.43081E-03-2.39433E-03-2.90080E-03 4.65772E+00-2.80663E+01-4.52289E+01



 n o d a l   p r i n t   o u t   f o r   t i m e  s t e p    6801                              ( at time 3.3996598E+00 )

 nodal point  x-rot      y-rot       z-rot       x-rot vel   y-rot vel   z-rot vel   x-rot acc   y-rot acc   z-rot acc
    22626 -3.94339E-04-3.65925E-07 2.49461E-06-1.36809E-04 3.69844E-06 6.27333E-06 1.25367E-05 1.33896E-05 3.55301E-05



 n o d a l   p r i n t   o u t   f o r   t i m e  s t e p    7001                              ( at time 3.4996498E+00 )

 nodal point  x-disp     y-disp      z-disp      x-vel       y-vel       z-vel      x-accl      y-accl      z-accl      x-coor      y-coor      z-coor
    22626 -1.75278E-03 1.29862E-01-2.58387E-01-9.60384E-04 5.30937E-02-1.11680E-01 8.22982E-05-9.64523E-03 1.34845E-02 4.65762E+00-2.80610E+01-4.52401E+01



 n o d a l   p r i n t   o u t   f o r   t i m e  s t e p    7001                              ( at time 3.4996498E+00 )

 nodal point  x-rot      y-rot       z-rot       x-rot vel   y-rot vel   z-rot vel   x-rot acc   y-rot acc   z-rot acc
    22626 -4.08259E-04-2.80023E-08 2.94591E-06-1.37267E-04 4.56787E-06 4.25298E-06-4.58257E-06 8.69523E-06-2.02055E-05



 n o d a l   p r i n t   o u t   f o r   t i m e  s t e p    7201                              ( at time 3.5996397E+00 )

 nodal point  x-disp     y-disp      z-disp      x-vel       y-vel       z-vel      x-accl      y-accl      z-accl      x-coor      y-coor      z-coor
    22626 -1.84507E-03 1.35128E-01-2.69483E-01-8.08100E-04 5.20810E-02-1.10684E-01 1.52300E-03-1.01285E-02 9.96228E-03 4.65753E+00-2.80557E+01-4.52512E+01



 n o d a l   p r i n t   o u t   f o r   t i m e  s t e p    7201                              ( at time 3.5996397E+00 )

 nodal point  x-rot      y-rot       z-rot       x-rot vel   y-rot vel   z-rot vel   x-rot acc   y-rot acc   z-rot acc
    22626 -4.21648E-04 6.05920E-07 3.50180E-06-1.34694E-04 6.06169E-06 3.38977E-06 2.57384E-05 1.49397E-05-8.63306E-06



 n o d a l   p r i n t   o u t   f o r   t i m e  s t e p    7401                              ( at time 3.6996297E+00 )

 nodal point  x-disp     y-disp      z-disp      x-vel       y-vel       z-vel      x-accl      y-accl      z-accl      x-coor      y-coor      z-coor
    22626 -1.92965E-03 1.40290E-01-2.80549E-01-8.08923E-04 5.11910E-02-1.10746E-01-8.23196E-06-8.90093E-03-6.17267E-04 4.65745E+00-2.80505E+01-4.52623E+01



 n o d a l   p r i n t   o u t   f o r   t i m e  s t e p    7401                              ( at time 3.6996297E+00 )

 nodal point  x-rot      y-rot       z-rot       x-rot vel   y-rot vel   z-rot vel   x-rot acc   y-rot acc   z-rot acc
    22626 -4.34722E-04 1.09415E-06 3.91865E-06-1.26887E-04 2.90150E-06 3.70338E-06 7.80709E-05-3.16051E-05 3.13649E-06



 n o d a l   p r i n t   o u t   f o r   t i m e  s t e p    7601                              ( at time 3.7996197E+00 )

 nodal point  x-disp     y-disp      z-disp      x-vel       y-vel       z-vel      x-accl      y-accl      z-accl      x-coor      y-coor      z-coor
    22626 -2.00940E-03 1.45350E-01-2.91593E-01-7.63790E-04 4.99912E-02-1.09968E-01 4.51377E-04-1.19993E-02 7.77696E-03 4.65737E+00-2.80455E+01-4.52733E+01



 n o d a l   p r i n t   o u t   f o r   t i m e  s t e p    7601                              ( at time 3.7996197E+00 )

 nodal point  x-rot      y-rot       z-rot       x-rot vel   y-rot vel   z-rot vel   x-rot acc   y-rot acc   z-rot acc
    22626 -4.46980E-04 1.22522E-06 4.25786E-06-1.24641E-04 2.28680E-08 2.30938E-06 2.24668E-05-2.87892E-05-1.39414E-05



 n o d a l   p r i n t   o u t   f o r   t i m e  s t e p    7801                              ( at time 3.8996097E+00 )

 nodal point  x-disp     y-disp      z-disp      x-vel       y-vel       z-vel      x-accl      y-accl      z-accl      x-coor      y-coor      z-coor
    22626 -2.07345E-03 1.50282E-01-3.02504E-01-5.46603E-04 4.86562E-02-1.08100E-01 2.17208E-03-1.33515E-02 1.86874E-02 4.65730E+00-2.80405E+01-4.52842E+01



 n o d a l   p r i n t   o u t   f o r   t i m e  s t e p    7801                              ( at time 3.8996097E+00 )

 nodal point  x-rot      y-rot       z-rot       x-rot vel   y-rot vel   z-rot vel   x-rot acc   y-rot acc   z-rot acc
    22626 -4.59518E-04 1.24112E-06 4.50252E-06-1.32720E-04 1.45151E-06 2.73349E-06-8.07961E-05 1.42879E-05 4.24154E-06



 n o d a l   p r i n t   o u t   f o r   t i m e  s t e p    8001                              ( at time 3.9995997E+00 )

 nodal point  x-disp     y-disp      z-disp      x-vel       y-vel       z-vel      x-accl      y-accl      z-accl      x-coor      y-coor      z-coor
    22626 -2.11593E-03 1.55084E-01-3.13188E-01-3.48309E-04 4.77754E-02-1.05800E-01 1.98314E-03-8.80878E-03 2.29972E-02 4.65726E+00-2.80357E+01-4.52949E+01



 n o d a l   p r i n t   o u t   f o r   t i m e  s t e p    8001                              ( at time 3.9995997E+00 )

 nodal point  x-rot      y-rot       z-rot       x-rot vel   y-rot vel   z-rot vel   x-rot acc   y-rot acc   z-rot acc
    22626 -4.72423E-04 1.30173E-06 4.71002E-06-1.25069E-04 5.23613E-07 3.80997E-06 7.65184E-05-9.27992E-06 1.07658E-05



 n o d a l   p r i n t   o u t   f o r   t i m e  s t e p    8201                              ( at time 4.0995897E+00 )

 nodal point  x-disp     y-disp      z-disp      x-vel       y-vel       z-vel      x-accl      y-accl      z-accl      x-coor      y-coor      z-coor
    22626 -2.15484E-03 1.59845E-01-3.23727E-01-3.89882E-04 4.74282E-02-1.05183E-01-4.15768E-04-3.47224E-03 6.16604E-03 4.65722E+00-2.80310E+01-4.53054E+01



 n o d a l   p r i n t   o u t   f o r   t i m e  s t e p    8201                              ( at time 4.0995897E+00 )

 nodal point  x-rot      y-rot       z-rot       x-rot vel   y-rot vel   z-rot vel   x-rot acc   y-rot acc   z-rot acc
    22626 -4.84112E-04 1.30412E-06 4.91553E-06-1.14646E-04-1.14460E-06 1.21634E-06 1.04236E-04-1.66838E-05-2.59388E-05



 n o d a l   p r i n t   o u t   f o r   t i m e  s t e p    8401                              ( at time 4.1995797E+00 )

 nodal point  x-disp     y-disp      z-disp      x-vel       y-vel       z-vel      x-accl      y-accl      z-accl      x-coor      y-coor      z-coor
    22626 -2.20454E-03 1.64627E-01-3.34209E-01-6.09812E-04 4.82459E-02-1.04207E-01-2.19952E-03 8.17806E-03 9.77011E-03 4.65717E+00-2.80262E+01-4.53159E+01



 n o d a l   p r i n t   o u t   f o r   t i m e  s t e p    8401                              ( at time 4.1995797E+00 )

 nodal point  x-rot      y-rot       z-rot       x-rot vel   y-rot vel   z-rot vel   x-rot acc   y-rot acc   z-rot acc
    22626 -4.95807E-04 1.19848E-06 4.82683E-06-1.19346E-04 1.15372E-07-7.99034E-07-4.70021E-05 1.26010E-05-2.01558E-05



 n o d a l   p r i n t   o u t   f o r   t i m e  s t e p    8601                              ( at time 4.2995697E+00 )

 nodal point  x-disp     y-disp      z-disp      x-vel       y-vel       z-vel      x-accl      y-accl      z-accl      x-coor      y-coor      z-coor
    22626 -2.26346E-03 1.69499E-01-3.44559E-01-5.43773E-04 4.92095E-02-1.02554E-01 6.60456E-04 9.63718E-03 1.65274E-02 4.65711E+00-2.80213E+01-4.53263E+01



 n o d a l   p r i n t   o u t   f o r   t i m e  s t e p    8601                              ( at time 4.2995697E+00 )

 nodal point  x-rot      y-rot       z-rot       x-rot vel   y-rot vel   z-rot vel   x-rot acc   y-rot acc   z-rot acc
    22626 -5.07700E-04 1.24821E-06 4.89490E-06-1.17424E-04 3.26172E-06 2.75857E-06 1.92231E-05 3.14667E-05 3.55796E-05



 n o d a l   p r i n t   o u t   f o r   t i m e  s t e p    8801                              ( at time 4.3995597E+00 )

 nodal point  x-disp     y-disp      z-disp      x-vel       y-vel       z-vel      x-accl      y-accl      z-accl      x-coor      y-coor      z-coor
    22626 -2.30411E-03 1.74449E-01-3.54695E-01-2.49480E-04 4.99698E-02-1.00086E-01 2.94322E-03 7.60334E-03 2.46799E-02 4.65707E+00-2.80164E+01-4.53364E+01



 n o d a l   p r i n t   o u t   f o r   t i m e  s t e p    8801                              ( at time 4.3995597E+00 )

 nodal point  x-rot      y-rot       z-rot       x-rot vel   y-rot vel   z-rot vel   x-rot acc   y-rot acc   z-rot acc
    22626 -5.19688E-04 1.79228E-06 5.37212E-06-1.21729E-04 6.45695E-06 4.73729E-06-4.30518E-05 3.19555E-05 1.97893E-05



 n o d a l   p r i n t   o u t   f o r   t i m e  s t e p    9001                              ( at time 4.4995497E+00 )

 nodal point  x-disp     y-disp      z-disp      x-vel       y-vel       z-vel      x-accl      y-accl      z-accl      x-coor      y-coor      z-coor
    22626 -2.34799E-03 1.79542E-01-3.64617E-01-5.93349E-04 5.22532E-02-9.85658E-02-3.43902E-03 2.28364E-02 1.52065E-02 4.65703E+00-2.80113E+01-4.53463E+01



 n o d a l   p r i n t   o u t   f o r   t i m e  s t e p    9001                              ( at time 4.4995497E+00 )

 nodal point  x-rot      y-rot       z-rot       x-rot vel   y-rot vel   z-rot vel   x-rot acc   y-rot acc   z-rot acc
    22626 -5.33088E-04 2.20705E-06 5.53666E-06-1.43737E-04 1.50536E-06-2.20840E-06-2.20106E-04-4.95207E-05-6.94636E-05



 n o d a l   p r i n t   o u t   f o r   t i m e  s t e p    9201                              ( at time 4.5995397E+00 )

 nodal point  x-disp     y-disp      z-disp      x-vel       y-vel       z-vel      x-accl      y-accl      z-accl      x-coor      y-coor      z-coor
    22626 -2.39938E-03 1.84944E-01-3.74428E-01-3.17161E-04 5.59418E-02-9.77118E-02 2.76216E-03 3.68901E-02 8.54072E-03 4.65698E+00-2.80059E+01-4.53561E+01



 n o d a l   p r i n t   o u t   f o r   t i m e  s t e p    9201                              ( at time 4.5995397E+00 )

 nodal point  x-rot      y-rot       z-rot       x-rot vel   y-rot vel   z-rot vel   x-rot acc   y-rot acc   z-rot acc
    22626 -5.48406E-04 2.40474E-06 5.40476E-06-1.64790E-04 1.69715E-06 1.48310E-06-2.10546E-04 1.91807E-06 3.69187E-05



 n o d a l   p r i n t   o u t   f o r   t i m e  s t e p    9401                              ( at time 4.6995297E+00 )

 nodal point  x-disp     y-disp      z-disp      x-vel       y-vel       z-vel      x-accl      y-accl      z-accl      x-coor      y-coor      z-coor
    22626 -2.41627E-03 1.90712E-01-3.84106E-01-2.26261E-04 5.95790E-02-9.59487E-02 9.09090E-04 3.63753E-02 1.76327E-02 4.65696E+00-2.80001E+01-4.53658E+01



 n o d a l   p r i n t   o u t   f o r   t i m e  s t e p    9401                              ( at time 4.6995297E+00 )

 nodal point  x-rot      y-rot       z-rot       x-rot vel   y-rot vel   z-rot vel   x-rot acc   y-rot acc   z-rot acc
    22626 -5.66236E-04 2.52439E-06 5.14854E-06-1.97585E-04-1.87993E-06-6.44590E-06-3.27989E-04-3.57743E-05-7.92980E-05



 n o d a l   p r i n t   o u t   f o r   t i m e  s t e p    9601                              ( at time 4.7995197E+00 )

 nodal point  x-disp     y-disp      z-disp      x-vel       y-vel       z-vel      x-accl      y-accl      z-accl      x-coor      y-coor      z-coor
    22626 -2.46548E-03 1.96915E-01-3.93572E-01-6.59129E-04 6.47404E-02-9.32184E-02-4.32911E-03 5.16190E-02 2.73053E-02 4.65691E+00-2.79939E+01-4.53753E+01



 n o d a l   p r i n t   o u t   f o r   t i m e  s t e p    9601                              ( at time 4.7995197E+00 )

 nodal point  x-rot      y-rot       z-rot       x-rot vel   y-rot vel   z-rot vel   x-rot acc   y-rot acc   z-rot acc
    22626 -5.88190E-04 1.83359E-06 3.78769E-06-2.44172E-04-9.84764E-06-1.90167E-05-4.65916E-04-7.96852E-05-1.25721E-04



 n o d a l   p r i n t   o u t   f o r   t i m e  s t e p    9801                              ( at time 4.8995097E+00 )

 nodal point  x-disp     y-disp      z-disp      x-vel       y-vel       z-vel      x-accl      y-accl      z-accl      x-coor      y-coor      z-coor
    22626 -2.54030E-03 2.03696E-01-4.02742E-01-9.05615E-04 7.12271E-02-9.01922E-02-2.46511E-03 6.48736E-02 3.02657E-02 4.65683E+00-2.79871E+01-4.53845E+01



 n o d a l   p r i n t   o u t   f o r   t i m e  s t e p    9801                              ( at time 4.8995097E+00 )

 nodal point  x-rot      y-rot       z-rot       x-rot vel   y-rot vel   z-rot vel   x-rot acc   y-rot acc   z-rot acc
    22626 -6.15178E-04 4.77604E-07 1.27994E-06-2.93161E-04-1.56782E-05-3.29581E-05-4.89937E-04-5.83110E-05-1.39428E-04



 n o d a l   p r i n t   o u t   f o r   t i m e  s t e p   10001                              ( at time 4.9994997E+00 )

 nodal point  x-disp     y-disp      z-disp      x-vel       y-vel       z-vel      x-accl      y-accl      z-accl      x-coor      y-coor      z-coor
    22626 -2.65252E-03 2.11199E-01-4.11718E-01-1.38278E-03 7.93721E-02-8.95578E-02-4.77213E-03 8.14577E-02 6.34396E-03 4.65672E+00-2.79796E+01-4.53934E+01



 n o d a l   p r i n t   o u t   f o r   t i m e  s t e p   10001                              ( at time 4.9994997E+00 )

 nodal point  x-rot      y-rot       z-rot       x-rot vel   y-rot vel   z-rot vel   x-rot acc   y-rot acc   z-rot acc
    22626 -6.47448E-04-1.20091E-06-2.67248E-06-3.55408E-04-1.78168E-05-4.12911E-05-6.22532E-04-2.13881E-05-8.33381E-05



 n o d a l   p r i n t   o u t   f o r   t i m e  s t e p   10202                              ( at time 5.0999896E+00 )

 nodal point  x-disp     y-disp      z-disp      x-vel       y-vel       z-vel      x-accl      y-accl      z-accl      x-coor      y-coor      z-coor
    22626 -2.79357E-03 2.19598E-01-4.20647E-01-1.22338E-03 8.80926E-02-8.80462E-02 1.58623E-03 8.67807E-02 1.50424E-02 4.65658E+00-2.79712E+01-4.54024E+01



 n o d a l   p r i n t   o u t   f o r   t i m e  s t e p   10202                              ( at time 5.0999896E+00 )

 nodal point  x-rot      y-rot       z-rot       x-rot vel   y-rot vel   z-rot vel   x-rot acc   y-rot acc   z-rot acc
    22626 -6.86510E-04-3.12904E-06-6.54134E-06-4.28998E-04-1.79063E-05-3.61105E-05-7.32313E-04-8.90637E-07 5.15535E-05



 n o d a l   p r i n t   o u t   f o r   t i m e  s t e p   10402                              ( at time 5.1999796E+00 )

 nodal point  x-disp     y-disp      z-disp      x-vel       y-vel       z-vel      x-accl      y-accl      z-accl      x-coor      y-coor      z-coor
    22626 -2.92013E-03 2.28915E-01-4.29335E-01-1.41206E-03 9.80580E-02-8.55595E-02-1.88700E-03 9.96636E-02 2.48692E-02 4.65646E+00-2.79619E+01-4.54111E+01



 n o d a l   p r i n t   o u t   f o r   t i m e  s t e p   10402                              ( at time 5.1999796E+00 )

 nodal point  x-rot      y-rot       z-rot       x-rot vel   y-rot vel   z-rot vel   x-rot acc   y-rot acc   z-rot acc
    22626 -7.33668E-04-4.87100E-06-1.01918E-05-5.15661E-04-1.43590E-05-3.95406E-05-8.66712E-04 3.54764E-05-3.43049E-05



 n o d a l   p r i n t   o u t   f o r   t i m e  s t e p   10602                              ( at time 5.2999696E+00 )

 nodal point  x-disp     y-disp      z-disp      x-vel       y-vel       z-vel      x-accl      y-accl      z-accl      x-coor      y-coor      z-coor
    22626 -3.06354E-03 2.39270E-01-4.37777E-01-1.45534E-03 1.09505E-01-8.34918E-02-4.32849E-04 1.14482E-01 2.06801E-02 4.65631E+00-2.79516E+01-4.54195E+01



 n o d a l   p r i n t   o u t   f o r   t i m e  s t e p   10602                              ( at time 5.2999696E+00 )

 nodal point  x-rot      y-rot       z-rot       x-rot vel   y-rot vel   z-rot vel   x-rot acc   y-rot acc   z-rot acc
    22626 -7.89557E-04-6.03105E-06-1.38811E-05-6.03187E-04-1.15072E-05-3.44305E-05-8.75352E-04 2.85208E-05 5.11061E-05



 n o d a l   p r i n t   o u t   f o r   t i m e  s t e p   10802                              ( at time 5.3999596E+00 )

 nodal point  x-disp     y-disp      z-disp      x-vel       y-vel       z-vel      x-accl      y-accl      z-accl      x-coor      y-coor      z-coor
    22626 -3.20783E-03 2.50843E-01-4.46084E-01-1.50625E-03 1.21978E-01-8.25191E-02-5.09125E-04 1.24741E-01 9.72705E-03 4.65617E+00-2.79400E+01-4.54278E+01



 n o d a l   p r i n t   o u t   f o r   t i m e  s t e p   10802                              ( at time 5.3999596E+00 )

 nodal point  x-rot      y-rot       z-rot       x-rot vel   y-rot vel   z-rot vel   x-rot acc   y-rot acc   z-rot acc
    22626 -8.54665E-04-7.55384E-06-1.77041E-05-6.96558E-04-1.81380E-05-4.35664E-05-9.33806E-04-6.63147E-05-9.13676E-05



 n o d a l   p r i n t   o u t   f o r   t i m e  s t e p   11002                              ( at time 5.4999496E+00 )

 nodal point  x-disp     y-disp      z-disp      x-vel       y-vel       z-vel      x-accl      y-accl      z-accl      x-coor      y-coor      z-coor
    22626 -3.35757E-03 2.63708E-01-4.54282E-01-1.30968E-03 1.35636E-01-8.12805E-02 1.96588E-03 1.36598E-01 1.23873E-02 4.65602E+00-2.79271E+01-4.54360E+01



 n o d a l   p r i n t   o u t   f o r   t i m e  s t e p   11002                              ( at time 5.4999496E+00 )

 nodal point  x-rot      y-rot       z-rot       x-rot vel   y-rot vel   z-rot vel   x-rot acc   y-rot acc   z-rot acc
    22626 -9.29614E-04-9.17312E-06-2.21518E-05-8.03055E-04-1.54951E-05-4.28008E-05-1.06508E-03 2.64308E-05 7.65606E-06



 n o d a l   p r i n t   o u t   f o r   t i m e  s t e p   11202                              ( at time 5.5999396E+00 )

 nodal point  x-disp     y-disp      z-disp      x-vel       y-vel       z-vel      x-accl      y-accl      z-accl      x-coor      y-coor      z-coor
    22626 -3.47737E-03 2.77993E-01-4.62316E-01-1.14476E-03 1.50345E-01-7.93786E-02 1.64939E-03 1.47106E-01 1.90210E-02 4.65590E+00-2.79128E+01-4.54440E+01



 n o d a l   p r i n t   o u t   f o r   t i m e  s t e p   11202                              ( at time 5.5999396E+00 )

 nodal point  x-rot      y-rot       z-rot       x-rot vel   y-rot vel   z-rot vel   x-rot acc   y-rot acc   z-rot acc
    22626 -1.01544E-03-1.08162E-05-2.60824E-05-9.18375E-04-1.82861E-05-3.84624E-05-1.15331E-03-2.79126E-05 4.33885E-05



 n o d a l   p r i n t   o u t   f o r   t i m e  s t e p   11402                              ( at time 5.6999296E+00 )

 nodal point  x-disp     y-disp      z-disp      x-vel       y-vel       z-vel      x-accl      y-accl      z-accl      x-coor      y-coor      z-coor
    22626 -3.58902E-03 2.93783E-01-4.70115E-01-9.94859E-04 1.65337E-01-7.66369E-02 1.49916E-03 1.49928E-01 2.74197E-02 4.65579E+00-2.78970E+01-4.54518E+01



 n o d a l   p r i n t   o u t   f o r   t i m e  s t e p   11402                              ( at time 5.6999296E+00 )

 nodal point  x-rot      y-rot       z-rot       x-rot vel   y-rot vel   z-rot vel   x-rot acc   y-rot acc   z-rot acc
    22626 -1.11289E-03-1.28200E-05-3.06658E-05-1.03601E-03-2.07067E-05-5.06626E-05-1.17644E-03-2.42081E-05-1.22013E-04



 n o d a l   p r i n t   o u t   f o r   t i m e  s t e p   11602                              ( at time 5.7999195E+00 )

 nodal point  x-disp     y-disp      z-disp      x-vel       y-vel       z-vel      x-accl      y-accl      z-accl      x-coor      y-coor      z-coor
    22626 -3.68709E-03 3.11148E-01-4.77661E-01-9.20729E-04 1.82137E-01-7.47373E-02 7.41369E-04 1.68017E-01 1.89980E-02 4.65569E+00-2.78797E+01-4.54594E+01



 n o d a l   p r i n t   o u t   f o r   t i m e  s t e p   11602                              ( at time 5.7999195E+00 )

 nodal point  x-rot      y-rot       z-rot       x-rot vel   y-rot vel   z-rot vel   x-rot acc   y-rot acc   z-rot acc
    22626 -1.22161E-03-1.45431E-05-3.57777E-05-1.15039E-03-1.72444E-05-4.73600E-05-1.14399E-03 3.46263E-05 3.30294E-05



 n o d a l   p r i n t   o u t   f o r   t i m e  s t e p   11802                              ( at time 5.8999095E+00 )

 nodal point  x-disp     y-disp      z-disp      x-vel       y-vel       z-vel      x-accl      y-accl      z-accl      x-coor      y-coor      z-coor
    22626 -3.79033E-03 3.30252E-01-4.85071E-01-1.02334E-03 2.00109E-01-7.37147E-02-1.02617E-03 1.79746E-01 1.02274E-02 4.65558E+00-2.78606E+01-4.54668E+01



 n o d a l   p r i n t   o u t   f o r   t i m e  s t e p   11802                              ( at time 5.8999095E+00 )

 nodal point  x-rot      y-rot       z-rot       x-rot vel   y-rot vel   z-rot vel   x-rot acc   y-rot acc   z-rot acc
    22626 -1.34272E-03-1.65856E-05-4.06169E-05-1.28894E-03-2.43792E-05-5.05919E-05-1.38558E-03-7.13546E-05-3.23230E-05



 n o d a l   p r i n t   o u t   f o r   t i m e  s t e p   12002                              ( at time 5.9998995E+00 )

 nodal point  x-disp     y-disp      z-disp      x-vel       y-vel       z-vel      x-accl      y-accl      z-accl      x-coor      y-coor      z-coor
    22626 -3.88458E-03 3.51174E-01-4.92377E-01-7.33958E-04 2.18459E-01-7.22512E-02 2.89406E-03 1.83514E-01 1.46358E-02 4.65549E+00-2.78397E+01-4.54741E+01



 n o d a l   p r i n t   o u t   f o r   t i m e  s t e p   12002                              ( at time 5.9998995E+00 )

 nodal point  x-rot      y-rot       z-rot       x-rot vel   y-rot vel   z-rot vel   x-rot acc   y-rot acc   z-rot acc
    22626 -1.47846E-03-1.84797E-05-4.59289E-05-1.42432E-03-1.72833E-05-5.52807E-05-1.35394E-03 7.09660E-05-4.68923E-05



 n o d a l   p r i n t   o u t   f o r   t i m e  s t e p   12202                              ( at time 6.0998895E+00 )

 nodal point  x-disp     y-disp      z-disp      x-vel       y-vel       z-vel      x-accl      y-accl      z-accl      x-coor      y-coor      z-coor
    22626 -4.02218E-03 3.74003E-01-4.99534E-01-1.78726E-03 2.38457E-01-7.07565E-02-1.05340E-02 1.99997E-01 1.49486E-02 4.65535E+00-2.78168E+01-4.54813E+01



 n o d a l   p r i n t   o u t   f o r   t i m e  s t e p   12202                              ( at time 6.0998895E+00 )

 nodal point  x-rot      y-rot       z-rot       x-rot vel   y-rot vel   z-rot vel   x-rot acc   y-rot acc   z-rot acc
    22626 -1.62770E-03-2.04341E-05-5.16405E-05-1.56471E-03-2.64528E-05-6.03205E-05-1.40408E-03-9.17038E-05-5.04032E-05



 n o d a l   p r i n t   o u t   f o r   t i m e  s t e p   12402                              ( at time 6.1998795E+00 )

 nodal point  x-disp     y-disp      z-disp      x-vel       y-vel       z-vel      x-accl      y-accl      z-accl      x-coor      y-coor      z-coor
    22626 -4.16209E-03 3.98873E-01-5.06542E-01-6.67873E-04 2.58943E-01-6.99086E-02 1.11950E-02 2.04883E-01 8.48036E-03 4.65521E+00-2.77920E+01-4.54883E+01



 n o d a l   p r i n t   o u t   f o r   t i m e  s t e p   12402                              ( at time 6.1998795E+00 )

 nodal point  x-rot      y-rot       z-rot       x-rot vel   y-rot vel   z-rot vel   x-rot acc   y-rot acc   z-rot acc
    22626 -1.79141E-03-2.23361E-05-5.73822E-05-1.71454E-03-1.42726E-05-4.63973E-05-1.49842E-03 1.21814E-04 1.39246E-04



 n o d a l   p r i n t   o u t   f o r   t i m e  s t e p   12602                              ( at time 6.2998695E+00 )

 nodal point  x-disp     y-disp      z-disp      x-vel       y-vel       z-vel      x-accl      y-accl      z-accl      x-coor      y-coor      z-coor
    22626 -4.23206E-03 4.25925E-01-5.13532E-01-1.04159E-03 2.81480E-01-7.02674E-02-3.73758E-03 2.25392E-01-3.58879E-03 4.65514E+00-2.77649E+01-4.54953E+01



 n o d a l   p r i n t   o u t   f o r   t i m e  s t e p   12602                              ( at time 6.2998695E+00 )

 nodal point  x-rot      y-rot       z-rot       x-rot vel   y-rot vel   z-rot vel   x-rot acc   y-rot acc   z-rot acc
    22626 -1.97038E-03-2.33896E-05-6.23631E-05-1.86804E-03-1.73469E-05-6.46141E-05-1.53516E-03-3.07464E-05-1.82186E-04



 n o d a l   p r i n t   o u t   f o r   t i m e  s t e p   12802                              ( at time 6.3998595E+00 )

 nodal point  x-disp     y-disp      z-disp      x-vel       y-vel       z-vel      x-accl      y-accl      z-accl      x-coor      y-coor      z-coor
    22626 -4.42913E-03 4.55214E-01-5.20475E-01-2.36393E-03 3.03937E-01-6.89543E-02-1.32247E-02 2.24593E-01 1.31330E-02 4.65495E+00-2.77356E+01-4.55022E+01



 n o d a l   p r i n t   o u t   f o r   t i m e  s t e p   12802                              ( at time 6.3998595E+00 )

 nodal point  x-rot      y-rot       z-rot       x-rot vel   y-rot vel   z-rot vel   x-rot acc   y-rot acc   z-rot acc
    22626 -2.16483E-03-2.64432E-05-7.00670E-05-2.02794E-03-3.60539E-05-8.56957E-05-1.59914E-03-1.87088E-04-2.10838E-04



 n o d a l   p r i n t   o u t   f o r   t i m e  s t e p   13002                              ( at time 6.4998495E+00 )

 nodal point  x-disp     y-disp      z-disp      x-vel       y-vel       z-vel      x-accl      y-accl      z-accl      x-coor      y-coor      z-coor
    22626 -4.61345E-03 4.86798E-01-5.27274E-01-1.30141E-03 3.27177E-01-6.74616E-02 1.06263E-02 2.32425E-01 1.49279E-02 4.65476E+00-2.77040E+01-4.55090E+01



 n o d a l   p r i n t   o u t   f o r   t i m e  s t e p   13002                              ( at time 6.4998495E+00 )

 nodal point  x-rot      y-rot       z-rot       x-rot vel   y-rot vel   z-rot vel   x-rot acc   y-rot acc   z-rot acc
    22626 -2.37570E-03-2.89889E-05-7.78093E-05-2.19158E-03-1.53141E-05-6.98104E-05-1.63662E-03 2.07418E-04 1.58869E-04



 n o d a l   p r i n t   o u t   f o r   t i m e  s t e p   13202                              ( at time 6.5998395E+00 )

 nodal point  x-disp     y-disp      z-disp      x-vel       y-vel       z-vel      x-accl      y-accl      z-accl      x-coor      y-coor      z-coor
    22626 -4.67932E-03 5.20727E-01-5.33915E-01-7.51168E-04 3.51346E-01-6.55979E-02 5.50294E-03 2.41712E-01 1.86392E-02 4.65470E+00-2.76701E+01-4.55156E+01



 n o d a l   p r i n t   o u t   f o r   t i m e  s t e p   13202                              ( at time 6.5998395E+00 )

 nodal point  x-rot      y-rot       z-rot       x-rot vel   y-rot vel   z-rot vel   x-rot acc   y-rot acc   z-rot acc
    22626 -2.60312E-03-3.05163E-05-8.44911E-05-2.36103E-03-1.90568E-05-7.52451E-05-1.69467E-03-3.74300E-05-5.43524E-05



 n o d a l   p r i n t   o u t   f o r   t i m e  s t e p   13402                              ( at time 6.6998295E+00 )

 nodal point  x-disp     y-disp      z-disp      x-vel       y-vel       z-vel      x-accl      y-accl      z-accl      x-coor      y-coor      z-coor
    22626 -4.80728E-03 5.57083E-01-5.40392E-01-1.53453E-03 3.75755E-01-6.45243E-02-7.83440E-03 2.44113E-01 1.07371E-02 4.65457E+00-2.76337E+01-4.55221E+01



 n o d a l   p r i n t   o u t   f o r   t i m e  s t e p   13402                              ( at time 6.6998295E+00 )

 nodal point  x-rot      y-rot       z-rot       x-rot vel   y-rot vel   z-rot vel   x-rot acc   y-rot acc   z-rot acc
    22626 -2.84736E-03-3.32891E-05-9.24624E-05-2.52279E-03-3.47868E-05-9.22021E-05-1.61775E-03-1.57316E-04-1.69587E-04



 n o d a l   p r i n t   o u t   f o r   t i m e  s t e p   13602                              ( at time 6.7998195E+00 )

 nodal point  x-disp     y-disp      z-disp      x-vel       y-vel       z-vel      x-accl      y-accl      z-accl      x-coor      y-coor      z-coor
    22626 -4.97139E-03 5.95939E-01-5.46806E-01-1.74973E-03 4.01144E-01-6.35829E-02-2.15221E-03 2.53915E-01 9.41506E-03 4.65440E+00-2.75949E+01-4.55285E+01



 n o d a l   p r i n t   o u t   f o r   t i m e  s t e p   13602                              ( at time 6.7998195E+00 )

 nodal point  x-rot      y-rot       z-rot       x-rot vel   y-rot vel   z-rot vel   x-rot acc   y-rot acc   z-rot acc
    22626 -3.10838E-03-3.63704E-05-1.01632E-04-2.69794E-03-2.34385E-05-8.83307E-05-1.75168E-03 1.13495E-04 3.87182E-05



 n o d a l   p r i n t   o u t   f o r   t i m e  s t e p   13802                              ( at time 6.8998095E+00 )

 nodal point  x-disp     y-disp      z-disp      x-vel       y-vel       z-vel      x-accl      y-accl      z-accl      x-coor      y-coor      z-coor
    22626 -5.07564E-03 6.37289E-01-5.53087E-01-5.65548E-04 4.26270E-01-6.15387E-02 1.18430E-02 2.51285E-01 2.04436E-02 4.65430E+00-2.75535E+01-4.55348E+01



 n o d a l   p r i n t   o u t   f o r   t i m e  s t e p   13802                              ( at time 6.8998095E+00 )

 nodal point  x-rot      y-rot       z-rot       x-rot vel   y-rot vel   z-rot vel   x-rot acc   y-rot acc   z-rot acc
    22626 -3.38795E-03-3.78498E-05-1.09462E-04-2.88194E-03-1.76014E-05-7.57512E-05-1.84014E-03 5.83765E-05 1.25807E-04



 n o d a l   p r i n t   o u t   f o r   t i m e  s t e p   14002                              ( at time 6.9997995E+00 )

 nodal point  x-disp     y-disp      z-disp      x-vel       y-vel       z-vel      x-accl      y-accl      z-accl      x-coor      y-coor      z-coor
    22626 -5.12566E-03 6.81238E-01-5.59142E-01-8.07330E-04 4.53013E-01-5.92220E-02-2.41807E-03 2.67462E-01 2.31692E-02 4.65425E+00-2.75096E+01-4.55409E+01



 n o d a l   p r i n t   o u t   f o r   t i m e  s t e p   14002                              ( at time 6.9997995E+00 )

 nodal point  x-rot      y-rot       z-rot       x-rot vel   y-rot vel   z-rot vel   x-rot acc   y-rot acc   z-rot acc
    22626 -3.68575E-03-4.03001E-05-1.17340E-04-3.06206E-03-3.00039E-05-8.72928E-05-1.80135E-03-1.24037E-04-1.15427E-04



 n o d a l   p r i n t   o u t   f o r   t i m e  s t e p   14202                              ( at time 7.0997895E+00 )

 nodal point  x-disp     y-disp      z-disp      x-vel       y-vel       z-vel      x-accl      y-accl      z-accl      x-coor      y-coor      z-coor
    22626 -5.23217E-03 7.27849E-01-5.64979E-01-1.00762E-03 4.78796E-01-5.73418E-02-2.00313E-03 2.57849E-01 1.88042E-02 4.65414E+00-2.74630E+01-4.55467E+01



 n o d a l   p r i n t   o u t   f o r   t i m e  s t e p   14202                              ( at time 7.0997895E+00 )

 nodal point  x-rot      y-rot       z-rot       x-rot vel   y-rot vel   z-rot vel   x-rot acc   y-rot acc   z-rot acc
    22626 -4.00142E-03-4.27033E-05-1.26304E-04-3.24661E-03-1.57305E-05-8.44996E-05-1.84568E-03 1.42748E-04 2.79343E-05



 n o d a l   p r i n t   o u t   f o r   t i m e  s t e p   14402                              ( at time 7.1997794E+00 )

 nodal point  x-disp     y-disp      z-disp      x-vel       y-vel       z-vel      x-accl      y-accl      z-accl      x-coor      y-coor      z-coor
    22626 -5.30313E-03 7.77033E-01-5.70594E-01-7.07333E-05 5.05093E-01-5.49442E-02 9.36986E-03 2.63002E-01 2.39784E-02 4.65407E+00-2.74138E+01-4.55523E+01



 n o d a l   p r i n t   o u t   f o r   t i m e  s t e p   14402                              ( at time 7.1997794E+00 )

 nodal point  x-rot      y-rot       z-rot       x-rot vel   y-rot vel   z-rot vel   x-rot acc   y-rot acc   z-rot acc
    22626 -4.33550E-03-4.38902E-05-1.34038E-04-3.43698E-03-8.20954E-06-7.28967E-05-1.90391E-03 7.52167E-05 1.16041E-04



 n o d a l   p r i n t   o u t   f o r   t i m e  s t e p   14602                              ( at time 7.2997694E+00 )

 nodal point  x-disp     y-disp      z-disp      x-vel       y-vel       z-vel      x-accl      y-accl      z-accl      x-coor      y-coor      z-coor
    22626 -5.25756E-03 8.28900E-01-5.75880E-01 3.53620E-04 5.31911E-01-5.03212E-02 4.24396E-03 2.68202E-01 4.62343E-02 4.65412E+00-2.73619E+01-4.55576E+01



 n o d a l   p r i n t   o u t   f o r   t i m e  s t e p   14602                              ( at time 7.2997694E+00 )

 nodal point  x-rot      y-rot       z-rot       x-rot vel   y-rot vel   z-rot vel   x-rot acc   y-rot acc   z-rot acc
    22626 -4.68907E-03-4.56193E-05-1.41633E-04-3.63282E-03-2.04478E-05-7.06789E-05-1.95860E-03-1.22395E-04 2.21803E-05



 n o d a l   p r i n t   o u t   f o r   t i m e  s t e p   14802                              ( at time 7.3997594E+00 )

 nodal point  x-disp     y-disp      z-disp      x-vel       y-vel       z-vel      x-accl      y-accl      z-accl      x-coor      y-coor      z-coor
    22626 -5.27163E-03 8.83340E-01-5.80662E-01-5.62405E-04 5.57069E-01-4.51581E-02-9.16118E-03 2.51611E-01 5.16370E-02 4.65410E+00-2.73075E+01-4.55624E+01



 n o d a l   p r i n t   o u t   f o r   t i m e  s t e p   14802                              ( at time 7.3997594E+00 )

 nodal point  x-rot      y-rot       z-rot       x-rot vel   y-rot vel   z-rot vel   x-rot acc   y-rot acc   z-rot acc
    22626 -5.06206E-03-4.78278E-05-1.49636E-04-3.82162E-03-1.21512E-05-8.29391E-05-1.88819E-03 8.29744E-05-1.22615E-04



 n o d a l   p r i n t   o u t   f o r   t i m e  s t e p   15002                              ( at time 7.4997494E+00 )

 nodal point  x-disp     y-disp      z-disp      x-vel       y-vel       z-vel      x-accl      y-accl      z-accl      x-coor      y-coor      z-coor
    22626 -5.28928E-03 9.40352E-01-5.84929E-01 5.33909E-04 5.83750E-01-4.03430E-02 1.09642E-02 2.66838E-01 4.81550E-02 4.65409E+00-2.72505E+01-4.55667E+01



 n o d a l   p r i n t   o u t   f o r   t i m e  s t e p   15002                              ( at time 7.4997494E+00 )

 nodal point  x-rot      y-rot       z-rot       x-rot vel   y-rot vel   z-rot vel   x-rot acc   y-rot acc   z-rot acc
    22626 -5.45381E-03-4.94355E-05-1.58608E-04-4.02158E-03-1.49511E-05-8.68304E-05-1.99980E-03-2.80014E-05-3.89167E-05



 n o d a l   p r i n t   o u t   f o r   t i m e  s t e p   15202                              ( at time 7.5997394E+00 )

 nodal point  x-disp     y-disp      z-disp      x-vel       y-vel       z-vel      x-accl      y-accl      z-accl      x-coor      y-coor      z-coor
    22626 -5.20592E-03 1.00007E+00-5.88680E-01 9.63989E-04 6.10108E-01-3.47649E-02 4.30123E-03 2.63607E-01 5.57865E-02 4.65417E+00-2.71908E+01-4.55704E+01



 n o d a l   p r i n t   o u t   f o r   t i m e  s t e p   15202                              ( at time 7.5997394E+00 )

 nodal point  x-rot      y-rot       z-rot       x-rot vel   y-rot vel   z-rot vel   x-rot acc   y-rot acc   z-rot acc
    22626 -5.86548E-03-5.09229E-05-1.66507E-04-4.22329E-03-1.66983E-05-7.51330E-05-2.01732E-03-1.74741E-05 1.16986E-04



 n o d a l   p r i n t   o u t   f o r   t i m e  s t e p   15402                              ( at time 7.6997294E+00 )

 nodal point  x-disp     y-disp      z-disp      x-vel       y-vel       z-vel      x-accl      y-accl      z-accl      x-coor      y-coor      z-coor
    22626 -5.13830E-03 1.06239E+00-5.91814E-01-8.84461E-05 6.36208E-01-2.82217E-02-1.05254E-02 2.61018E-01 6.54388E-02 4.65424E+00-2.71284E+01-4.55735E+01



 n o d a l   p r i n t   o u t   f o r   t i m e  s t e p   15402                              ( at time 7.6997294E+00 )

 nodal point  x-rot      y-rot       z-rot       x-rot vel   y-rot vel   z-rot vel   x-rot acc   y-rot acc   z-rot acc
    22626 -6.29804E-03-5.30511E-05-1.75814E-04-4.43514E-03-2.50840E-05-9.96082E-05-2.11874E-03-8.38650E-05-2.44777E-04



 n o d a l   p r i n t   o u t   f o r   t i m e  s t e p   15602                              ( at time 7.7997194E+00 )

 nodal point  x-disp     y-disp      z-disp      x-vel       y-vel       z-vel      x-accl      y-accl      z-accl      x-coor      y-coor      z-coor
    22626 -5.17407E-03 1.12735E+00-5.94329E-01-1.85090E-04 6.62891E-01-2.20393E-02-9.66533E-04 2.66856E-01 6.18301E-02 4.65420E+00-2.70635E+01-4.55760E+01



 n o d a l   p r i n t   o u t   f o r   t i m e  s t e p   15602                              ( at time 7.7997194E+00 )

 nodal point  x-rot      y-rot       z-rot       x-rot vel   y-rot vel   z-rot vel   x-rot acc   y-rot acc   z-rot acc
    22626 -6.75173E-03-5.48286E-05-1.86265E-04-4.63677E-03-5.85453E-06-9.43304E-05-2.01644E-03 1.92314E-04 5.27835E-05



 n o d a l   p r i n t   o u t   f o r   t i m e  s t e p   15802                              ( at time 7.8997094E+00 )

 nodal point  x-disp     y-disp      z-disp      x-vel       y-vel       z-vel      x-accl      y-accl      z-accl      x-coor      y-coor      z-coor
    22626 -5.11372E-03 1.19495E+00-5.96155E-01 1.43151E-03 6.89398E-01-1.41396E-02 1.61677E-02 2.65099E-01 7.90052E-02 4.65426E+00-2.69959E+01-4.55779E+01



 n o d a l   p r i n t   o u t   f o r   t i m e  s t e p   15802                              ( at time 7.8997094E+00 )

 nodal point  x-rot      y-rot       z-rot       x-rot vel   y-rot vel   z-rot vel   x-rot acc   y-rot acc   z-rot acc
    22626 -7.22580E-03-5.51907E-05-1.95832E-04-4.83891E-03-1.07493E-05-9.87176E-05-2.02160E-03-4.89529E-05-4.38766E-05



 n o d a l   p r i n t   o u t   f o r   t i m e  s t e p   16002                              ( at time 7.9996994E+00 )

 nodal point  x-disp     y-disp      z-disp      x-vel       y-vel       z-vel      x-accl      y-accl      z-accl      x-coor      y-coor      z-coor
    22626 -5.01989E-03 1.26526E+00-5.97201E-01 6.70204E-04 7.16456E-01-7.40241E-03-7.61384E-03 2.70605E-01 6.73784E-02 4.65436E+00-2.69256E+01-4.55789E+01



 n o d a l   p r i n t   o u t   f o r   t i m e  s t e p   16002                              ( at time 7.9996994E+00 )

 nodal point  x-rot      y-rot       z-rot       x-rot vel   y-rot vel   z-rot vel   x-rot acc   y-rot acc   z-rot acc
    22626 -7.72018E-03-5.76558E-05-2.06895E-04-5.05724E-03-3.95278E-05-1.17620E-04-2.18354E-03-2.87813E-04-1.89044E-04



 n o d a l   p r i n t   o u t   f o r   t i m e  s t e p   16202                              ( at time 8.0996894E+00 )

 nodal point  x-disp     y-disp      z-disp      x-vel       y-vel       z-vel      x-accl      y-accl      z-accl      x-coor      y-coor      z-coor
    22626 -4.91577E-03 1.33819E+00-5.97520E-01 1.40166E-03 7.42618E-01 1.22119E-03 7.31534E-03 2.61649E-01 8.62447E-02 4.65446E+00-2.68526E+01-4.55792E+01



 n o d a l   p r i n t   o u t   f o r   t i m e  s t e p   16202                              ( at time 8.0996894E+00 )

 nodal point  x-rot      y-rot       z-rot       x-rot vel   y-rot vel   z-rot vel   x-rot acc   y-rot acc   z-rot acc
    22626 -8.23621E-03-6.05821E-05-2.18154E-04-5.26600E-03-2.42910E-05-1.11358E-04-2.08784E-03 1.52384E-04 6.26333E-05



 n o d a l   p r i n t   o u t   f o r   t i m e  s t e p   16402                              ( at time 8.1996794E+00 )

 nodal point  x-disp     y-disp      z-disp      x-vel       y-vel       z-vel      x-accl      y-accl      z-accl      x-coor      y-coor      z-coor
    22626 -4.76142E-03 1.41379E+00-5.96910E-01 1.73308E-03 7.68807E-01 1.08693E-02 3.31449E-03 2.61922E-01 9.64913E-02 4.65461E+00-2.67770E+01-4.55786E+01



 n o d a l   p r i n t   o u t   f o r   t i m e  s t e p   16402                              ( at time 8.1996794E+00 )

 nodal point  x-rot      y-rot       z-rot       x-rot vel   y-rot vel   z-rot vel   x-rot acc   y-rot acc   z-rot acc
    22626 -8.77248E-03-6.21894E-05-2.29382E-04-5.46513E-03-2.16438E-05-1.22444E-04-1.99148E-03 2.64738E-05-1.10876E-04



 n o d a l   p r i n t   o u t   f o r   t i m e  s t e p   16602                              ( at time 8.2996694E+00 )

 nodal point  x-disp     y-disp      z-disp      x-vel       y-vel       z-vel      x-accl      y-accl      z-accl      x-coor      y-coor      z-coor
    22626 -4.59235E-03 1.49196E+00-5.95309E-01 1.79005E-03 7.94751E-01 2.07708E-02 5.69776E-04 2.59461E-01 9.90250E-02 4.65478E+00-2.66989E+01-4.55770E+01



 n o d a l   p r i n t   o u t   f o r   t i m e  s t e p   16602                              ( at time 8.2996694E+00 )

 nodal point  x-rot      y-rot       z-rot       x-rot vel   y-rot vel   z-rot vel   x-rot acc   y-rot acc   z-rot acc
    22626 -9.32917E-03-6.52156E-05-2.41160E-04-5.67323E-03-2.91575E-05-1.17374E-04-2.08119E-03-7.51445E-05 5.07008E-05



 n o d a l   p r i n t   o u t   f o r   t i m e  s t e p   16802                              ( at time 8.3996594E+00 )

 nodal point  x-disp     y-disp      z-disp      x-vel       y-vel       z-vel      x-accl      y-accl      z-accl      x-coor      y-coor      z-coor
    22626 -4.43801E-03 1.57276E+00-5.92699E-01 1.63555E-03 8.21104E-01 3.14666E-02-1.54516E-03 2.63558E-01 1.06968E-01 4.65494E+00-2.66181E+01-4.55744E+01



 n o d a l   p r i n t   o u t   f o r   t i m e  s t e p   16802                              ( at time 8.3996594E+00 )

 nodal point  x-rot      y-rot       z-rot       x-rot vel   y-rot vel   z-rot vel   x-rot acc   y-rot acc   z-rot acc
    22626 -9.90640E-03-6.74784E-05-2.52574E-04-5.86991E-03-1.69872E-05-1.24100E-04-1.96706E-03 1.21716E-04-6.72672E-05



 n o d a l   p r i n t   o u t   f o r   t i m e  s t e p   17002                              ( at time 8.4996494E+00 )

 nodal point  x-disp     y-disp      z-disp      x-vel       y-vel       z-vel      x-accl      y-accl      z-accl      x-coor      y-coor      z-coor
    22626 -4.21327E-03 1.65618E+00-5.89019E-01 2.50314E-03 8.47294E-01 4.23389E-02 8.67676E-03 2.61929E-01 1.08734E-01 4.65516E+00-2.65347E+01-4.55707E+01



 n o d a l   p r i n t   o u t   f o r   t i m e  s t e p   17002                              ( at time 8.4996494E+00 )

 nodal point  x-rot      y-rot       z-rot       x-rot vel   y-rot vel   z-rot vel   x-rot acc   y-rot acc   z-rot acc
    22626 -1.05035E-02-6.98909E-05-2.64850E-04-6.07812E-03-2.91491E-05-1.25515E-04-2.08225E-03-1.21631E-04-1.41468E-05



 n o d a l   p r i n t   o u t   f o r   t i m e  s t e p   17202                              ( at time 8.5996394E+00 )

 nodal point  x-disp     y-disp      z-disp      x-vel       y-vel       z-vel      x-accl      y-accl      z-accl      x-coor      y-coor      z-coor
    22626 -3.93994E-03 1.74214E+00-5.84186E-01 2.81995E-03 8.72852E-01 5.47619E-02 3.16844E-03 2.55602E-01 1.24243E-01 4.65544E+00-2.64487E+01-4.55659E+01



 n o d a l   p r i n t   o u t   f o r   t i m e  s t e p   17202                              ( at time 8.5996394E+00 )

 nodal point  x-rot      y-rot       z-rot       x-rot vel   y-rot vel   z-rot vel   x-rot acc   y-rot acc   z-rot acc
    22626 -1.11213E-02-7.21441E-05-2.76713E-04-6.26312E-03-2.34722E-05-1.20151E-04-1.85018E-03 5.67747E-05 5.36498E-05



 n o d a l   p r i n t   o u t   f o r   t i m e  s t e p   17402                              ( at time 8.6996293E+00 )

 nodal point  x-disp     y-disp      z-disp      x-vel       y-vel       z-vel      x-accl      y-accl      z-accl      x-coor      y-coor      z-coor
    22626 -3.59117E-03 1.83068E+00-5.78163E-01 3.63304E-03 8.98092E-01 6.67984E-02 8.13164E-03 2.52427E-01 1.20376E-01 4.65578E+00-2.63602E+01-4.55599E+01



 n o d a l   p r i n t   o u t   f o r   t i m e  s t e p   17402                              ( at time 8.6996293E+00 )

 nodal point  x-rot      y-rot       z-rot       x-rot vel   y-rot vel   z-rot vel   x-rot acc   y-rot acc   z-rot acc
    22626 -1.17578E-02-7.44208E-05-2.88669E-04-6.44794E-03-2.25139E-05-1.20100E-04-1.84838E-03 9.58350E-06 5.10019E-07



 n o d a l   p r i n t   o u t   f o r   t i m e  s t e p   17602                              ( at time 8.7996193E+00 )

 nodal point  x-disp     y-disp      z-disp      x-vel       y-vel       z-vel      x-accl      y-accl      z-accl      x-coor      y-coor      z-coor
    22626 -3.26001E-03 1.92174E+00-5.70829E-01 3.67638E-03 9.23458E-01 8.02354E-02 4.33451E-04 2.53682E-01 1.34383E-01 4.65612E+00-2.62691E+01-4.55526E+01



 n o d a l   p r i n t   o u t   f o r   t i m e  s t e p   17602                              ( at time 8.7996193E+00 )

 nodal point  x-rot      y-rot       z-rot       x-rot vel   y-rot vel   z-rot vel   x-rot acc   y-rot acc   z-rot acc
    22626 -1.24129E-02-7.65017E-05-3.00402E-04-6.63855E-03-1.64593E-05-1.17818E-04-1.90629E-03 6.05523E-05 2.28224E-05



 n o d a l   p r i n t   o u t   f o r   t i m e  s t e p   17802                              ( at time 8.8996093E+00 )

 nodal point  x-disp     y-disp      z-disp      x-vel       y-vel       z-vel      x-accl      y-accl      z-accl      x-coor      y-coor      z-coor
    22626 -2.86037E-03 2.01532E+00-5.62152E-01 4.30277E-03 9.48029E-01 9.30429E-02 6.26451E-03 2.45736E-01 1.28088E-01 4.65651E+00-2.61755E+01-4.55439E+01



 n o d a l   p r i n t   o u t   f o r   t i m e  s t e p   17802                              ( at time 8.8996093E+00 )

 nodal point  x-rot      y-rot       z-rot       x-rot vel   y-rot vel   z-rot vel   x-rot acc   y-rot acc   z-rot acc
    22626 -1.30855E-02-7.81819E-05-3.12169E-04-6.80436E-03-8.60420E-06-1.15127E-04-1.65829E-03 7.85590E-05 2.69109E-05



 n o d a l   p r i n t   o u t   f o r   t i m e  s t e p   18002                              ( at time 8.9995993E+00 )

 nodal point  x-disp     y-disp      z-disp      x-vel       y-vel       z-vel      x-accl      y-accl      z-accl      x-coor      y-coor      z-coor
    22626 -2.41369E-03 2.11139E+00-5.52169E-01 4.45915E-03 9.72811E-01 1.06974E-01 1.56400E-03 2.47844E-01 1.39328E-01 4.65696E+00-2.60794E+01-4.55339E+01



 n o d a l   p r i n t   o u t   f o r   t i m e  s t e p   18002                              ( at time 8.9995993E+00 )

 nodal point  x-rot      y-rot       z-rot       x-rot vel   y-rot vel   z-rot vel   x-rot acc   y-rot acc   z-rot acc
    22626 -1.37747E-02-7.88199E-05-3.22919E-04-6.98181E-03-1.95361E-06-1.02375E-04-1.77470E-03 6.65126E-05 1.27533E-04



 n o d a l   p r i n t   o u t   f o r   t i m e  s t e p   18202                              ( at time 9.0995893E+00 )

 nodal point  x-disp     y-disp      z-disp      x-vel       y-vel       z-vel      x-accl      y-accl      z-accl      x-coor      y-coor      z-coor
    22626 -1.93341E-03 2.20984E+00-5.40702E-01 4.95547E-03 9.96538E-01 1.22098E-01 4.96365E-03 2.37293E-01 1.51249E-01 4.65744E+00-2.59810E+01-4.55224E+01



 n o d a l   p r i n t   o u t   f o r   t i m e  s t e p   18202                              ( at time 9.0995893E+00 )

 nodal point  x-rot      y-rot       z-rot       x-rot vel   y-rot vel   z-rot vel   x-rot acc   y-rot acc   z-rot acc
    22626 -1.44808E-02-7.88295E-05-3.33589E-04-7.13342E-03-1.05528E-06-1.05250E-04-1.51627E-03 8.98422E-06-2.87599E-05



 n o d a l   p r i n t   o u t   f o r   t i m e  s t e p   18402                              ( at time 9.1995793E+00 )

 nodal point  x-disp     y-disp      z-disp      x-vel       y-vel       z-vel      x-accl      y-accl      z-accl      x-coor      y-coor      z-coor
    22626 -1.40851E-03 2.31069E+00-5.27773E-01 5.74673E-03 1.02030E+00 1.36677E-01 7.91341E-03 2.37642E-01 1.45811E-01 4.65797E+00-2.58801E+01-4.55095E+01



 n o d a l   p r i n t   o u t   f o r   t i m e  s t e p   18402                              ( at time 9.1995793E+00 )

 nodal point  x-rot      y-rot       z-rot       x-rot vel   y-rot vel   z-rot vel   x-rot acc   y-rot acc   z-rot acc
    22626 -1.52019E-02-7.85909E-05-3.43367E-04-7.27572E-03 8.46491E-06-9.25808E-05-1.42313E-03 9.52115E-05 1.26709E-04



 n o d a l   p r i n t   o u t   f o r   t i m e  s t e p   18602                              ( at time 9.2995693E+00 )

 nodal point  x-disp     y-disp      z-disp      x-vel       y-vel       z-vel      x-accl      y-accl      z-accl      x-coor      y-coor      z-coor
    22626 -7.86678E-04 2.41389E+00-5.13360E-01 6.63759E-03 1.04353E+00 1.51708E-01 8.90947E-03 2.32364E-01 1.50327E-01 4.65859E+00-2.57769E+01-4.54951E+01



 n o d a l   p r i n t   o u t   f o r   t i m e  s t e p   18602                              ( at time 9.2995693E+00 )

 nodal point  x-rot      y-rot       z-rot       x-rot vel   y-rot vel   z-rot vel   x-rot acc   y-rot acc   z-rot acc
    22626 -1.59374E-02-7.70358E-05-3.52374E-04-7.42292E-03 2.63292E-05-9.02561E-05-1.47209E-03 1.78661E-04 2.32495E-05



 n o d a l   p r i n t   o u t   f o r   t i m e  s t e p   18802                              ( at time 9.3995593E+00 )

 nodal point  x-disp     y-disp      z-disp      x-vel       y-vel       z-vel      x-accl      y-accl      z-accl      x-coor      y-coor      z-coor
    22626 -5.95407E-05 2.51939E+00-4.97397E-01 7.52021E-03 1.06628E+00 1.67560E-01 8.82718E-03 2.27498E-01 1.58533E-01 4.65932E+00-2.56714E+01-4.54791E+01



 n o d a l   p r i n t   o u t   f o r   t i m e  s t e p   18802                              ( at time 9.3995593E+00 )

 nodal point  x-rot      y-rot       z-rot       x-rot vel   y-rot vel   z-rot vel   x-rot acc   y-rot acc   z-rot acc
    22626 -1.66865E-02-7.39249E-05-3.60878E-04-7.54985E-03 2.77885E-05-7.78840E-05-1.26948E-03 1.45947E-05 1.23733E-04



 n o d a l   p r i n t   o u t   f o r   t i m e  s t e p   19002                              ( at time 9.4995493E+00 )

 nodal point  x-disp     y-disp      z-disp      x-vel       y-vel       z-vel      x-accl      y-accl      z-accl      x-coor      y-coor      z-coor
    22626  7.04987E-04 2.62715E+00-4.79835E-01 8.06323E-03 1.08862E+00 1.83837E-01 5.43074E-03 2.23421E-01 1.62788E-01 4.66008E+00-2.55637E+01-4.54616E+01



 n o d a l   p r i n t   o u t   f o r   t i m e  s t e p   19002                              ( at time 9.4995493E+00 )

 nodal point  x-rot      y-rot       z-rot       x-rot vel   y-rot vel   z-rot vel   x-rot acc   y-rot acc   z-rot acc
    22626 -1.74479E-02-7.15808E-05-3.67750E-04-7.67385E-03 3.02192E-05-6.75521E-05-1.24006E-03 2.43094E-05 1.03330E-04



 n o d a l   p r i n t   o u t   f o r   t i m e  s t e p   19202                              ( at time 9.5995393E+00 )

 nodal point  x-disp     y-disp      z-disp      x-vel       y-vel       z-vel      x-accl      y-accl      z-accl      x-coor      y-coor      z-coor
    22626  1.59013E-03 2.73705E+00-4.60569E-01 9.64872E-03 1.10983E+00 2.01340E-01 1.58563E-02 2.12080E-01 1.75042E-01 4.66096E+00-2.54538E+01-4.54423E+01



 n o d a l   p r i n t   o u t   f o r   t i m e  s t e p   19202                              ( at time 9.5995393E+00 )

 nodal point  x-rot      y-rot       z-rot       x-rot vel   y-rot vel   z-rot vel   x-rot acc   y-rot acc   z-rot acc
    22626 -1.82208E-02-6.71220E-05-3.73919E-04-7.78517E-03 5.71028E-05-4.93551E-05-1.11329E-03 2.68860E-04 1.81987E-04



 n o d a l   p r i n t   o u t   f o r   t i m e  s t e p   19402                              ( at time 9.6995293E+00 )

 nodal point  x-disp     y-disp      z-disp      x-vel       y-vel       z-vel      x-accl      y-accl      z-accl      x-coor      y-coor      z-coor
    22626  2.62641E-03 2.84908E+00-4.39562E-01 1.07725E-02 1.13099E+00 2.19079E-01 1.12390E-02 2.11629E-01 1.77406E-01 4.66200E+00-2.53418E+01-4.54213E+01



 n o d a l   p r i n t   o u t   f o r   t i m e  s t e p   19402                              ( at time 9.6995293E+00 )

 nodal point  x-rot      y-rot       z-rot       x-rot vel   y-rot vel   z-rot vel   x-rot acc   y-rot acc   z-rot acc
    22626 -1.90046E-02-6.04828E-05-3.77854E-04-7.88765E-03 6.80069E-05-2.72466E-05-1.02498E-03 1.09052E-04 2.21107E-04



 n o d a l   p r i n t   o u t   f o r   t i m e  s t e p   19602                              ( at time 9.7995193E+00 )

 nodal point  x-disp     y-disp      z-disp      x-vel       y-vel       z-vel      x-accl      y-accl      z-accl      x-coor      y-coor      z-coor
    22626  3.72042E-03 2.96315E+00-4.16715E-01 1.15218E-02 1.15039E+00 2.37779E-01 7.49376E-03 1.94008E-01 1.87024E-01 4.66310E+00-2.52277E+01-4.53984E+01



 n o d a l   p r i n t   o u t   f o r   t i m e  s t e p   19602                              ( at time 9.7995193E+00 )

 nodal point  x-rot      y-rot       z-rot       x-rot vel   y-rot vel   z-rot vel   x-rot acc   y-rot acc   z-rot acc
    22626 -1.97996E-02-5.36569E-05-3.80114E-04-8.01449E-03 7.52596E-05-1.95940E-05-1.26852E-03 7.25343E-05 7.65332E-05



 n o d a l   p r i n t   o u t   f o r   t i m e  s t e p   19802                              ( at time 9.8995093E+00 )

 nodal point  x-disp     y-disp      z-disp      x-vel       y-vel       z-vel      x-accl      y-accl      z-accl      x-coor      y-coor      z-coor
    22626  4.90804E-03 3.07915E+00-3.91918E-01 1.24423E-02 1.16901E+00 2.58207E-01 9.20596E-03 1.86208E-01 2.04303E-01 4.66428E+00-2.51117E+01-4.53736E+01



 n o d a l   p r i n t   o u t   f o r   t i m e  s t e p   19802                              ( at time 9.8995093E+00 )

 nodal point  x-rot      y-rot       z-rot       x-rot vel   y-rot vel   z-rot vel   x-rot acc   y-rot acc   z-rot acc
    22626 -2.06059E-02-4.50691E-05-3.80852E-04-8.12021E-03 9.88259E-05 8.29537E-06-1.05731E-03 2.35687E-04 2.78922E-04



 n o d a l   p r i n t   o u t   f o r   t i m e  s t e p   20003                              ( at time 9.9999992E+00 )

 nodal point  x-disp     y-disp      z-disp      x-vel       y-vel       z-vel      x-accl      y-accl      z-accl      x-coor      y-coor      z-coor
[...]
    22626 -1.96653E-01 3.73434E-03 3.77579E-03-1.92807E-02 8.97801E-05 2.29057E-04-1.36470E-04 8.75911E-05 6.17388E-05



 n o d a l   p r i n t   o u t   f o r   t i m e  s t e p   45205                              ( at time 2.2599738E+01 )

 nodal point  x-disp     y-disp      z-disp      x-vel       y-vel       z-vel      x-accl      y-accl      z-accl      x-coor      y-coor      z-coor
    22626  7.32768E-01 2.08812E+01 1.76884E+01 5.75489E-02 1.76324E+00 8.22836E-01-8.22742E-03 3.48254E-02-1.29654E-01 5.39214E+00-7.30962E+00-2.72933E+01



 n o d a l   p r i n t   o u t   f o r   t i m e  s t e p   45205                              ( at time 2.2599738E+01 )

 nodal point  x-rot      y-rot       z-rot       x-rot vel   y-rot vel   z-rot vel   x-rot acc   y-rot acc   z-rot acc
    22626 -1.98583E-01 3.74385E-03 3.79956E-03-1.93169E-02 9.41228E-05 2.37283E-04-3.62914E-04 4.34313E-05 8.22630E-05



 n o d a l   p r i n t   o u t   f o r   t i m e  s t e p   45405                              ( at time 2.2699728E+01 )

 nodal point  x-disp     y-disp      z-disp      x-vel       y-vel       z-vel      x-accl      y-accl      z-accl      x-coor      y-coor      z-coor
    22626  7.38496E-01 2.10577E+01 1.77701E+01 5.67694E-02 1.76690E+00 8.09794E-01-7.79532E-03 3.65977E-02-1.30437E-01 5.39787E+00-7.13312E+00-2.72116E+01



 n o d a l   p r i n t   o u t   f o r   t i m e  s t e p   45405                              ( at time 2.2699728E+01 )

 nodal point  x-rot      y-rot       z-rot       x-rot vel   y-rot vel   z-rot vel   x-rot acc   y-rot acc   z-rot acc
    22626 -2.00516E-01 3.75171E-03 3.82215E-03-1.93431E-02 7.04043E-05 2.15936E-04-2.61433E-04-2.37211E-04-2.13493E-04



 n o d a l   p r i n t   o u t   f o r   t i m e  s t e p   45605                              ( at time 2.2799718E+01 )

 nodal point  x-disp     y-disp      z-disp      x-vel       y-vel       z-vel      x-accl      y-accl      z-accl      x-coor      y-coor      z-coor
    22626  7.44184E-01 2.12345E+01 1.78504E+01 5.75529E-02 1.76919E+00 7.96990E-01 7.83534E-03 2.29368E-02-1.28047E-01 5.40356E+00-6.95634E+00-2.71313E+01



 n o d a l   p r i n t   o u t   f o r   t i m e  s t e p   45605                              ( at time 2.2799718E+01 )

 nodal point  x-rot      y-rot       z-rot       x-rot vel   y-rot vel   z-rot vel   x-rot acc   y-rot acc   z-rot acc
    22626 -2.02450E-01 3.75969E-03 3.84521E-03-1.93550E-02 9.67015E-05 2.35686E-04-1.18848E-04 2.62996E-04 1.97518E-04



 n o d a l   p r i n t   o u t   f o r   t i m e  s t e p   45805                              ( at time 2.2899708E+01 )

 nodal point  x-disp     y-disp      z-disp      x-vel       y-vel       z-vel      x-accl      y-accl      z-accl      x-coor      y-coor      z-coor
    22626  7.49922E-01 2.14114E+01 1.79296E+01 5.68914E-02 1.77019E+00 7.86521E-01-6.61543E-03 9.99561E-03-1.04707E-01 5.40930E+00-6.77939E+00-2.70522E+01



 n o d a l   p r i n t   o u t   f o r   t i m e  s t e p   45805                              ( at time 2.2899708E+01 )

 nodal point  x-rot      y-rot       z-rot       x-rot vel   y-rot vel   z-rot vel   x-rot acc   y-rot acc   z-rot acc
    22626 -2.04386E-01 3.76890E-03 3.86864E-03-1.93739E-02 8.40838E-05 2.33678E-04-1.89173E-04-1.26191E-04-2.00849E-05



 n o d a l   p r i n t   o u t   f o r   t i m e  s t e p   46005                              ( at time 2.2999698E+01 )

 nodal point  x-disp     y-disp      z-disp      x-vel       y-vel       z-vel      x-accl      y-accl      z-accl      x-coor      y-coor      z-coor
    22626  7.55644E-01 2.15886E+01 1.80077E+01 5.67095E-02 1.77266E+00 7.77290E-01-1.81967E-03 2.46559E-02-9.23170E-02 5.41502E+00-6.60225E+00-2.69740E+01



 n o d a l   p r i n t   o u t   f o r   t i m e  s t e p   46005                              ( at time 2.2999698E+01 )

 nodal point  x-rot      y-rot       z-rot       x-rot vel   y-rot vel   z-rot vel   x-rot acc   y-rot acc   z-rot acc
    22626 -2.06323E-01 3.77731E-03 3.89158E-03-1.93764E-02 7.61665E-05 2.34065E-04-2.47009E-05-7.91809E-05 3.86869E-06



 n o d a l   p r i n t   o u t   f o r   t i m e  s t e p   46205                              ( at time 2.3099688E+01 )

 nodal point  x-disp     y-disp      z-disp      x-vel       y-vel       z-vel      x-accl      y-accl      z-accl      x-coor      y-coor      z-coor
    22626  7.61237E-01 2.17658E+01 1.80850E+01 5.63443E-02 1.77258E+00 7.68237E-01-3.65268E-03-7.47525E-04-9.05346E-02 5.42061E+00-6.42503E+00-2.68968E+01



 n o d a l   p r i n t   o u t   f o r   t i m e  s t e p   46205                              ( at time 2.3099688E+01 )

 nodal point  x-rot      y-rot       z-rot       x-rot vel   y-rot vel   z-rot vel   x-rot acc   y-rot acc   z-rot acc
    22626 -2.08261E-01 3.78536E-03 3.91525E-03-1.93877E-02 7.86387E-05 2.28362E-04-1.13802E-04 2.47252E-05-5.70277E-05



 n o d a l   p r i n t   o u t   f o r   t i m e  s t e p   46405                              ( at time 2.3199678E+01 )

 nodal point  x-disp     y-disp      z-disp      x-vel       y-vel       z-vel      x-accl      y-accl      z-accl      x-coor      y-coor      z-coor
    22626  7.66899E-01 2.19431E+01 1.81613E+01 5.67870E-02 1.77349E+00 7.60437E-01 4.42773E-03 9.05239E-03-7.80129E-02 5.42627E+00-6.24777E+00-2.68204E+01



 n o d a l   p r i n t   o u t   f o r   t i m e  s t e p   46405                              ( at time 2.3199678E+01 )

 nodal point  x-rot      y-rot       z-rot       x-rot vel   y-rot vel   z-rot vel   x-rot acc   y-rot acc   z-rot acc
    22626 -2.10200E-01 3.79389E-03 3.93815E-03-1.93862E-02 8.82026E-05 2.37559E-04 1.52937E-05 9.56477E-05 9.19704E-05



 n o d a l   p r i n t   o u t   f o r   t i m e  s t e p   46605                              ( at time 2.3299668E+01 )

 nodal point  x-disp     y-disp      z-disp      x-vel       y-vel       z-vel      x-accl      y-accl      z-accl      x-coor      y-coor      z-coor
    22626  7.72572E-01 2.21204E+01 1.82371E+01 5.64613E-02 1.77332E+00 7.54471E-01-3.25675E-03-1.65719E-03-5.96649E-02 5.43195E+00-6.07044E+00-2.67447E+01



 n o d a l   p r i n t   o u t   f o r   t i m e  s t e p   46605                              ( at time 2.3299668E+01 )

 nodal point  x-rot      y-rot       z-rot       x-rot vel   y-rot vel   z-rot vel   x-rot acc   y-rot acc   z-rot acc
    22626 -2.12139E-01 3.80311E-03 3.96188E-03-1.93878E-02 9.19550E-05 2.45172E-04-1.57783E-05 3.75285E-05 7.61410E-05



 n o d a l   p r i n t   o u t   f o r   t i m e  s t e p   46805                              ( at time 2.3399658E+01 )

 nodal point  x-disp     y-disp      z-disp      x-vel       y-vel       z-vel      x-accl      y-accl      z-accl      x-coor      y-coor      z-coor
    22626  7.78135E-01 2.22977E+01 1.83122E+01 5.59033E-02 1.77267E+00 7.48510E-01-5.58118E-03-6.49750E-03-5.96131E-02 5.43751E+00-5.89317E+00-2.66695E+01



 n o d a l   p r i n t   o u t   f o r   t i m e  s t e p   46805                              ( at time 2.3399658E+01 )

 nodal point  x-rot      y-rot       z-rot       x-rot vel   y-rot vel   z-rot vel   x-rot acc   y-rot acc   z-rot acc
    22626 -2.14078E-01 3.81100E-03 3.98557E-03-1.93833E-02 7.75549E-05 2.29566E-04 4.46889E-05-1.44015E-04-1.56069E-04



 n o d a l   p r i n t   o u t   f o r   t i m e  s t e p   47005                              ( at time 2.3499648E+01 )

 nodal point  x-disp     y-disp      z-disp      x-vel       y-vel       z-vel      x-accl      y-accl      z-accl      x-coor      y-coor      z-coor
    22626  7.83706E-01 2.24749E+01 1.83868E+01 5.51886E-02 1.77259E+00 7.44161E-01-7.14785E-03-7.90430E-04-4.34915E-02 5.44308E+00-5.71592E+00-2.65949E+01



 n o d a l   p r i n t   o u t   f o r   t i m e  s t e p   47005                              ( at time 2.3499648E+01 )

 nodal point  x-rot      y-rot       z-rot       x-rot vel   y-rot vel   z-rot vel   x-rot acc   y-rot acc   z-rot acc
    22626 -2.16015E-01 3.81946E-03 4.00868E-03-1.93775E-02 9.26159E-05 2.42069E-04 5.77100E-05 1.50624E-04 1.25042E-04



 n o d a l   p r i n t   o u t   f o r   t i m e  s t e p   47205                              ( at time 2.3599638E+01 )

 nodal point  x-disp     y-disp      z-disp      x-vel       y-vel       z-vel      x-accl      y-accl      z-accl      x-coor      y-coor      z-coor
    22626  7.89290E-01 2.26521E+01 1.84611E+01 5.59994E-02 1.77120E+00 7.41064E-01 8.10936E-03-1.39216E-02-3.09788E-02 5.44866E+00-5.53874E+00-2.65207E+01



 n o d a l   p r i n t   o u t   f o r   t i m e  s t e p   47205                              ( at time 2.3599638E+01 )

 nodal point  x-rot      y-rot       z-rot       x-rot vel   y-rot vel   z-rot vel   x-rot acc   y-rot acc   z-rot acc
    22626 -2.17951E-01 3.82944E-03 4.03276E-03-1.93599E-02 9.70388E-05 2.39079E-04 1.76039E-04 4.42336E-05-2.99081E-05



 n o d a l   p r i n t   o u t   f o r   t i m e  s t e p   47405                              ( at time 2.3699628E+01 )

 nodal point  x-disp     y-disp      z-disp      x-vel       y-vel       z-vel      x-accl      y-accl      z-accl      x-coor      y-coor      z-coor
    22626  7.94806E-01 2.28291E+01 1.85350E+01 5.49757E-02 1.76992E+00 7.38881E-01-1.02380E-02-1.28293E-02-2.18334E-02 5.45418E+00-5.36170E+00-2.64467E+01



 n o d a l   p r i n t   o u t   f o r   t i m e  s t e p   47405                              ( at time 2.3699628E+01 )

 nodal point  x-rot      y-rot       z-rot       x-rot vel   y-rot vel   z-rot vel   x-rot acc   y-rot acc   z-rot acc
    22626 -2.19886E-01 3.83839E-03 4.05668E-03-1.93397E-02 8.85046E-05 2.35176E-04 2.02134E-04-8.53494E-05-3.90352E-05



 n o d a l   p r i n t   o u t   f o r   t i m e  s t e p   47605                              ( at time 2.3799618E+01 )

 nodal point  x-disp     y-disp      z-disp      x-vel       y-vel       z-vel      x-accl      y-accl      z-accl      x-coor      y-coor      z-coor
    22626  8.00264E-01 2.30061E+01 1.86088E+01 5.44417E-02 1.76924E+00 7.36588E-01-5.34068E-03-6.77422E-03-2.29342E-02 5.45964E+00-5.18474E+00-2.63729E+01



 n o d a l   p r i n t   o u t   f o r   t i m e  s t e p   47605                              ( at time 2.3799618E+01 )

 nodal point  x-rot      y-rot       z-rot       x-rot vel   y-rot vel   z-rot vel   x-rot acc   y-rot acc   z-rot acc
    22626 -2.21818E-01 3.84748E-03 4.08035E-03-1.93088E-02 9.60792E-05 2.41879E-04 3.09513E-04 7.57538E-05 6.70348E-05



 n o d a l   p r i n t   o u t   f o r   t i m e  s t e p   47805                              ( at time 2.3899608E+01 )

 nodal point  x-disp     y-disp      z-disp      x-vel       y-vel       z-vel      x-accl      y-accl      z-accl      x-coor      y-coor      z-coor
    22626  8.05775E-01 2.31829E+01 1.86825E+01 5.52449E-02 1.76739E+00 7.36768E-01 8.03246E-03-1.85292E-02 1.80797E-03 5.46515E+00-5.00794E+00-2.62993E+01



 n o d a l   p r i n t   o u t   f o r   t i m e  s t e p   47805                              ( at time 2.3899608E+01 )

 nodal point  x-rot      y-rot       z-rot       x-rot vel   y-rot vel   z-rot vel   x-rot acc   y-rot acc   z-rot acc
    22626 -2.23746E-01 3.85784E-03 4.10458E-03-1.92791E-02 1.07893E-04 2.42769E-04 2.97249E-04 1.18149E-04 8.90906E-06



 n o d a l   p r i n t   o u t   f o r   t i m e  s t e p   48005                              ( at time 2.3999598E+01 )

 nodal point  x-disp     y-disp      z-disp      x-vel       y-vel       z-vel      x-accl      y-accl      z-accl      x-coor      y-coor      z-coor
    22626  8.11224E-01 2.33595E+01 1.87561E+01 5.42336E-02 1.76536E+00 7.37182E-01-1.01136E-02-2.03072E-02 4.14119E-03 5.47060E+00-4.83133E+00-2.62256E+01



 n o d a l   p r i n t   o u t   f o r   t i m e  s t e p   48005                              ( at time 2.3999598E+01 )

 nodal point  x-rot      y-rot       z-rot       x-rot vel   y-rot vel   z-rot vel   x-rot acc   y-rot acc   z-rot acc
    22626 -2.25672E-01 3.86868E-03 4.12965E-03-1.92376E-02 1.01048E-04 2.45452E-04 4.14969E-04-6.84541E-05 2.68329E-05



 n o d a l   p r i n t   o u t   f o r   t i m e  s t e p   48205                              ( at time 2.4099588E+01 )

 nodal point  x-disp     y-disp      z-disp      x-vel       y-vel       z-vel      x-accl      y-accl      z-accl      x-coor      y-coor      z-coor
    22626  8.16649E-01 2.35359E+01 1.88299E+01 5.39273E-02 1.76379E+00 7.38505E-01-3.06366E-03-1.56453E-02 1.32287E-02 5.47602E+00-4.65490E+00-2.61518E+01



 n o d a l   p r i n t   o u t   f o r   t i m e  s t e p   48205                              ( at time 2.4099588E+01 )

 nodal point  x-rot      y-rot       z-rot       x-rot vel   y-rot vel   z-rot vel   x-rot acc   y-rot acc   z-rot acc
    22626 -2.27593E-01 3.87857E-03 4.15376E-03-1.91931E-02 9.97256E-05 2.46419E-04 4.44822E-04-1.32285E-05 9.67034E-06



 n o d a l   p r i n t   o u t   f o r   t i m e  s t e p   48405                              ( at time 2.4199578E+01 )

 nodal point  x-disp     y-disp      z-disp      x-vel       y-vel       z-vel      x-accl      y-accl      z-accl      x-coor      y-coor      z-coor
    22626  8.22071E-01 2.37121E+01 1.89038E+01 5.44545E-02 1.76098E+00 7.40622E-01 5.27310E-03-2.81663E-02 2.11668E-02 5.48145E+00-4.47869E+00-2.60779E+01



 n o d a l   p r i n t   o u t   f o r   t i m e  s t e p   48405                              ( at time 2.4199578E+01 )

 nodal point  x-rot      y-rot       z-rot       x-rot vel   y-rot vel   z-rot vel   x-rot acc   y-rot acc   z-rot acc
    22626 -2.29510E-01 3.88984E-03 4.17885E-03-1.91438E-02 1.22099E-04 2.55523E-04 4.92612E-04 2.23760E-04 9.10501E-05



 n o d a l   p r i n t   o u t   f o r   t i m e  s t e p   48605                              ( at time 2.4299568E+01 )

 nodal point  x-disp     y-disp      z-disp      x-vel       y-vel       z-vel      x-accl      y-accl      z-accl      x-coor      y-coor      z-coor
    22626  8.27497E-01 2.38881E+01 1.89781E+01 5.45140E-02 1.75782E+00 7.45542E-01 5.94462E-04-3.15624E-02 4.92123E-02 5.48687E+00-4.30275E+00-2.60036E+01



 n o d a l   p r i n t   o u t   f o r   t i m e  s t e p   48605                              ( at time 2.4299568E+01 )

 nodal point  x-rot      y-rot       z-rot       x-rot vel   y-rot vel   z-rot vel   x-rot acc   y-rot acc   z-rot acc
    22626 -2.31422E-01 3.90149E-03 4.20462E-03-1.91068E-02 1.17361E-04 2.54761E-04 3.70831E-04-4.73886E-05-7.62241E-06



 n o d a l   p r i n t   o u t   f o r   t i m e  s t e p   48805                              ( at time 2.4399558E+01 )

 nodal point  x-disp     y-disp      z-disp      x-vel       y-vel       z-vel      x-accl      y-accl      z-accl      x-coor      y-coor      z-coor
    22626  8.32881E-01 2.40637E+01 1.90529E+01 5.31106E-02 1.75494E+00 7.49439E-01-1.40346E-02-2.88739E-02 3.89695E-02 5.49226E+00-4.12713E+00-2.59288E+01



 n o d a l   p r i n t   o u t   f o r   t i m e  s t e p   48805                              ( at time 2.4399558E+01 )

 nodal point  x-rot      y-rot       z-rot       x-rot vel   y-rot vel   z-rot vel   x-rot acc   y-rot acc   z-rot acc
    22626 -2.33329E-01 3.91338E-03 4.23000E-03-1.90434E-02 1.16795E-04 2.55074E-04 6.33283E-04-5.65445E-06 3.12458E-06



 n o d a l   p r i n t   o u t   f o r   t i m e  s t e p   49006                              ( at time 2.4500048E+01 )

 nodal point  x-disp     y-disp      z-disp      x-vel       y-vel       z-vel      x-accl      y-accl      z-accl      x-coor      y-coor      z-coor
    22626  8.38290E-01 2.42399E+01 1.91285E+01 5.45081E-02 1.75120E+00 7.55913E-01 1.39066E-02-3.71311E-02 6.44224E-02 5.49766E+00-3.95095E+00-2.58532E+01



 n o d a l   p r i n t   o u t   f o r   t i m e  s t e p   49006                              ( at time 2.4500048E+01 )

 nodal point  x-rot      y-rot       z-rot       x-rot vel   y-rot vel   z-rot vel   x-rot acc   y-rot acc   z-rot acc
    22626 -2.35239E-01 3.92516E-03 4.25599E-03-1.89873E-02 1.20418E-04 2.62701E-04 5.58467E-04 3.60547E-05 7.59038E-05



 n o d a l   p r i n t   o u t   f o r   t i m e  s t e p   49206                              ( at time 2.4600038E+01 )

 nodal point  x-disp     y-disp      z-disp      x-vel       y-vel       z-vel      x-accl      y-accl      z-accl      x-coor      y-coor      z-coor
    22626  8.43737E-01 2.44148E+01 1.92045E+01 5.41627E-02 1.74747E+00 7.63461E-01-3.45403E-03-3.73100E-02 7.54867E-02 5.50311E+00-3.77603E+00-2.57772E+01



 n o d a l   p r i n t   o u t   f o r   t i m e  s t e p   49206                              ( at time 2.4600038E+01 )

 nodal point  x-rot      y-rot       z-rot       x-rot vel   y-rot vel   z-rot vel   x-rot acc   y-rot acc   z-rot acc
    22626 -2.37135E-01 3.93822E-03 4.28263E-03-1.89392E-02 1.41557E-04 2.73289E-04 4.81426E-04 2.11401E-04 1.05890E-04



 n o d a l   p r i n t   o u t   f o r   t i m e  s t e p   49406                              ( at time 2.4700028E+01 )

 nodal point  x-disp     y-disp      z-disp      x-vel       y-vel       z-vel      x-accl      y-accl      z-accl      x-coor      y-coor      z-coor
    22626  8.49124E-01 2.45893E+01 1.92812E+01 5.31592E-02 1.74304E+00 7.71189E-01-1.00361E-02-4.43686E-02 7.72913E-02 5.50850E+00-3.60155E+00-2.57005E+01



 n o d a l   p r i n t   o u t   f o r   t i m e  s t e p   49406                              ( at time 2.4700028E+01 )

 nodal point  x-rot      y-rot       z-rot       x-rot vel   y-rot vel   z-rot vel   x-rot acc   y-rot acc   z-rot acc
    22626 -2.39025E-01 3.95201E-03 4.30923E-03-1.88676E-02 1.33794E-04 2.61645E-04 7.15856E-04-7.76388E-05-1.16449E-04



 n o d a l   p r i n t   o u t   f o r   t i m e  s t e p   49606                              ( at time 2.4800018E+01 )

 nodal point  x-disp     y-disp      z-disp      x-vel       y-vel       z-vel      x-accl      y-accl      z-accl      x-coor      y-coor      z-coor
    22626  8.54422E-01 2.47633E+01 1.93587E+01 5.36339E-02 1.73849E+00 7.79354E-01 4.74727E-03-4.54646E-02 8.16533E-02 5.51380E+00-3.42751E+00-2.56230E+01



 n o d a l   p r i n t   o u t   f o r   t i m e  s t e p   49606                              ( at time 2.4800018E+01 )

 nodal point  x-rot      y-rot       z-rot       x-rot vel   y-rot vel   z-rot vel   x-rot acc   y-rot acc   z-rot acc
    22626 -2.40908E-01 3.96530E-03 4.33526E-03-1.88146E-02 1.41958E-04 2.63955E-04 5.29971E-04 8.16542E-05 2.30940E-05



 n o d a l   p r i n t   o u t   f o r   t i m e  s t e p   49806                              ( at time 2.4900008E+01 )

 nodal point  x-disp     y-disp      z-disp      x-vel       y-vel       z-vel      x-accl      y-accl      z-accl      x-coor      y-coor      z-coor
    22626  8.59783E-01 2.49369E+01 1.94371E+01 5.33636E-02 1.73338E+00 7.88671E-01-2.70318E-03-5.10678E-02 9.31855E-02 5.51916E+00-3.25395E+00-2.55446E+01



 n o d a l   p r i n t   o u t   f o r   t i m e  s t e p   49806                              ( at time 2.4900008E+01 )

 nodal point  x-rot      y-rot       z-rot       x-rot vel   y-rot vel   z-rot vel   x-rot acc   y-rot acc   z-rot acc
    22626 -2.42785E-01 3.98050E-03 4.36273E-03-1.87410E-02 1.55074E-04 2.75473E-04 7.36404E-04 1.31169E-04 1.15200E-04



 n o d a l   p r i n t   o u t   f o r   t i m e  s t e p   50006                              ( at time 2.4999998E+01 )

 nodal point  x-disp     y-disp      z-disp      x-vel       y-vel       z-vel      x-accl      y-accl      z-accl      x-coor      y-coor      z-coor
    22626  8.65108E-01 2.51100E+01 1.95165E+01 5.30121E-02 1.72803E+00 7.99053E-01-3.51595E-03-5.35895E-02 1.03826E-01 5.52448E+00-3.08086E+00-2.54652E+01



 n o d a l   p r i n t   o u t   f o r   t i m e  s t e p   50006                              ( at time 2.4999998E+01 )

 nodal point  x-rot      y-rot       z-rot       x-rot vel   y-rot vel   z-rot vel   x-rot acc   y-rot acc   z-rot acc
    22626 -2.44655E-01 3.99599E-03 4.38991E-03-1.86707E-02 1.47933E-04 2.68850E-04 7.02635E-04-7.14180E-05-6.62388E-05
