 LSTC 50th% Full_FE H-III Dummy (Beta Version, February 17, 2019)        
                    ls-dyna smp s R16 R16.0_619_d222963 date 03/18/2025

{BEGIN LEGEND}
 Entity #        Title
        1     Upper_Neck_Force_INJURY                                              
{END LEGEND}



 line#1  section#     time        x-force     y-force     z-force    magnitude
 line#2  resultant  moments       x-moment    y-moment    z-moment   magnitude
 line#3  centroids                x           y           z            area  
           1    0.00000E+00     0.0000E+00  0.0000E+00  0.0000E+00  0.0000E+00
ac ID =   33377                 0.0000E+00  0.0000E+00  0.0000E+00  0.0000E+00
                               -3.7437E-01  1.0501E+01 -4.6940E+01  0.0000E+00

           1    1.00490E-01     1.3629E-04 -4.9880E-03  2.5983E-01  2.5988E-01
ac ID =   33377                 4.2544E-01 -1.2522E+00 -2.7100E-02  1.3227E+00
                               -3.7387E-01  1.0590E+01 -4.6886E+01  2.5147E+03

           1    2.00480E-01    -4.4273E-02  5.1801E-04  4.4120E-01  4.4341E-01
ac ID =   33377                 3.0872E-01 -1.5972E+00  2.1577E-02  1.6269E+00
                               -3.7386E-01  1.0591E+01 -4.6888E+01  2.5147E+03

           1    3.00470E-01     1.4751E-02 -3.3028E-03  2.1753E-01  2.1805E-01
ac ID =   33377                 2.6375E-02 -3.3599E-01  6.0564E-02  3.4242E-01
                               -3.7382E-01  1.0591E+01 -4.6889E+01  2.5147E+03

           1    4.00460E-01     2.9287E-03  1.0611E-02  8.7673E-02  8.8361E-02
ac ID =   33377                -4.9433E-01 -9.4661E-01 -4.6510E-03  1.0679E+00
                               -3.7384E-01  1.0592E+01 -4.6890E+01  2.5147E+03

           1    5.00450E-01    -4.0623E-02  4.3639E-03  1.6189E-01  1.6696E-01
ac ID =   33377                -3.9415E-01 -1.5078E+00 -1.0664E-01  1.5621E+00
                               -3.7385E-01  1.0594E+01 -4.6893E+01  2.5147E+03

           1    6.00440E-01    -1.0932E-02  4.1989E-03  3.4364E-01  3.4384E-01
ac ID =   33377                 9.2216E-02 -1.3210E+00 -3.6354E-02  1.3248E+00
                               -3.7385E-01  1.0595E+01 -4.6897E+01  2.5147E+03

           1    7.00430E-01     3.0205E-03 -5.6455E-03  2.9437E-01  2.9444E-01
ac ID =   33377                 1.3914E-01 -5.0195E-01  8.0041E-02  5.2699E-01
                               -3.7389E-01  1.0597E+01 -4.6901E+01  2.5147E+03

           1    8.00420E-01    -3.0857E-02 -1.2849E-03  1.0059E-01  1.0522E-01
ac ID =   33377                 8.3836E-02 -1.0497E+00  4.4265E-02  1.0539E+00
                               -3.7394E-01  1.0599E+01 -4.6905E+01  2.5147E+03

           1    9.00410E-01    -3.9381E-02  8.9739E-04  6.2293E-02  7.3703E-02
ac ID =   33377                 8.8310E-02 -1.0713E+00 -1.5603E-04  1.0749E+00
                               -3.7399E-01  1.0601E+01 -4.6909E+01  2.5147E+03

           1    1.00040E+00     1.4767E-02 -4.1072E-03  2.2052E-01  2.2105E-01
ac ID =   33377                 3.6730E-01 -2.8554E-01 -5.9824E-02  4.6906E-01
                               -3.7400E-01  1.0604E+01 -4.6915E+01  2.5147E+03

           1    1.10039E+00     1.0720E-04 -2.9376E-03  2.7125E-01  2.7127E-01
ac ID =   33377                 3.4913E-01 -8.7971E-01 -5.5208E-02  9.4806E-01
                               -3.7401E-01  1.0607E+01 -4.6921E+01  2.5147E+03

           1    1.20038E+00    -3.2239E-02 -3.5694E-04  1.2902E-01  1.3299E-01
ac ID =   33377                -1.5573E-01 -1.1798E+00  1.3135E-02  1.1901E+00
                               -3.7403E-01  1.0610E+01 -4.6927E+01  2.5147E+03

           1    1.30037E+00    -1.0189E-02  4.5627E-03  7.4657E-02  7.5487E-02
ac ID =   33377                -3.0280E-01 -8.8890E-01  1.2601E-02  9.3915E-01
                               -3.7407E-01  1.0612E+01 -4.6933E+01  2.5147E+03

           1    1.40036E+00     7.8288E-03  3.7317E-03  1.7387E-01  1.7408E-01
ac ID =   33377                -2.9149E-01 -8.3687E-01  3.1519E-02  8.8674E-01
                               -3.7409E-01  1.0616E+01 -4.6941E+01  2.5147E+03

           1    1.50035E+00    -2.6811E-02  9.8938E-04  3.2832E-01  3.2942E-01
ac ID =   33377                -1.5532E-02 -1.5801E+00 -4.6118E-02  1.5809E+00
                               -3.7413E-01  1.0620E+01 -4.6949E+01  2.5147E+03

           1    1.60034E+00    -1.9225E-02 -2.0924E-03  2.2128E-01  2.2212E-01
ac ID =   33377                -2.4541E-02 -1.3754E+00 -1.8190E-02  1.3758E+00
                               -3.7419E-01  1.0624E+01 -4.6957E+01  2.5147E+03

           1    1.70033E+00    -3.1173E-03 -6.0733E-04  5.8632E-02  5.8718E-02
ac ID =   33377                -4.1529E-02 -6.6752E-01  9.2072E-02  6.7511E-01
                               -3.7427E-01  1.0627E+01 -4.6965E+01  2.5147E+03

           1    1.80032E+00    -2.0399E-02  9.5671E-04  7.7673E-02  8.0313E-02
ac ID =   33377                 8.0573E-02 -1.1128E+00  1.2696E-01  1.1229E+00
                               -3.7434E-01  1.0632E+01 -4.6974E+01  2.5147E+03

           1    1.90031E+00    -8.0405E-03 -2.4713E-03  1.9179E-01  1.9198E-01
ac ID =   33377                 2.7487E-01 -8.1979E-01 -7.1114E-02  8.6756E-01
                               -3.7439E-01  1.0636E+01 -4.6984E+01  2.5147E+03

           1    2.00030E+00    -2.1811E-03 -4.6205E-03  1.5658E-01  1.5666E-01
ac ID =   33377                 2.0629E-01 -4.4349E-01 -1.4274E-01  5.0953E-01
                               -3.7444E-01  1.0641E+01 -4.6993E+01  2.5147E+03

           1    2.10029E+00    -2.5515E-02  2.6447E-03  2.8773E-03  2.5813E-02
ac ID =   33377                -7.1159E-02 -6.9725E-01  3.6159E-02  7.0181E-01
                               -3.7450E-01  1.0645E+01 -4.7003E+01  2.5147E+03

           1    2.20028E+00    -1.2861E-02  5.2536E-03  3.0345E-03  1.4220E-02
ac ID =   33377                -2.3386E-01 -6.6158E-01  2.7429E-02  7.0223E-01
                               -3.7456E-01  1.0650E+01 -4.7013E+01  2.5147E+03

           1    2.30027E+00     9.0884E-04  4.8933E-03  1.4923E-01  1.4931E-01
ac ID =   33377                -1.4712E-01 -8.1351E-01 -7.2212E-02  8.2986E-01
                               -3.7461E-01  1.0655E+01 -4.7024E+01  2.5147E+03

           1    2.40026E+00    -1.7861E-02 -1.4782E-03  1.8858E-01  1.8943E-01
ac ID =   33377                -1.5305E-01 -1.1774E+00  7.4277E-02  1.1897E+00
                               -3.7469E-01  1.0661E+01 -4.7035E+01  2.5147E+03

           1    2.50025E+00    -1.8528E-02  1.2923E-03  6.9638E-04  1.8586E-02
ac ID =   33377                -1.9726E-01 -8.9336E-01  1.2964E-01  9.2402E-01
                               -3.7479E-01  1.0665E+01 -4.7045E+01  2.5147E+03

           1    2.60024E+00    -6.8260E-03  5.9599E-03 -7.7060E-02  7.7591E-02
ac ID =   33377                -2.0748E-01 -1.8147E-01  4.2452E-02  2.7890E-01
                               -3.7490E-01  1.0671E+01 -4.7056E+01  2.5147E+03

           1    2.70023E+00    -1.1665E-02 -1.7717E-03  1.0123E-02  1.5547E-02
ac ID =   33377                 3.3921E-02 -2.1571E-01  3.6415E-02  2.2138E-01
                               -3.7501E-01  1.0676E+01 -4.7068E+01  2.5147E+03

           1    2.80022E+00    -5.5685E-03 -4.5450E-03  6.3544E-02  6.3950E-02
ac ID =   33377                 3.6675E-01 -1.3760E-01 -1.7024E-02  3.9209E-01
                               -3.7510E-01  1.0682E+01 -4.7079E+01  2.5147E+03

           1    2.90021E+00     5.3158E-03 -2.5745E-03 -1.0340E-02  1.1908E-02
ac ID =   33377                 1.4693E-01  3.1322E-01 -8.2646E-02  3.5571E-01
                               -3.7520E-01  1.0687E+01 -4.7090E+01  2.5147E+03

           1    3.00020E+00    -7.2579E-03  2.0805E-03 -8.8617E-02  8.8938E-02
ac ID =   33377                -3.4671E-02  8.1298E-02 -5.5956E-02  1.0461E-01
                               -3.7530E-01  1.0692E+01 -4.7101E+01  2.5147E+03

           1    3.10019E+00    -2.8715E-03  4.1892E-04 -9.0768E-03  9.5294E-03
ac ID =   33377                 3.7344E-02 -2.5386E-01 -3.3226E-02  2.5874E-01
                               -3.7538E-01  1.0698E+01 -4.7113E+01  2.5147E+03

           1    3.20018E+00     3.6317E-03  2.0901E-03  6.9740E-02  6.9866E-02
ac ID =   33377                -1.9998E-02 -3.3529E-01  2.4781E-02  3.3680E-01
                               -3.7545E-01  1.0703E+01 -4.7125E+01  2.5147E+03

           1    3.30017E+00     6.3182E-04  1.0385E-03  1.3378E-02  1.3433E-02
ac ID =   33377                -2.3134E-01 -3.6382E-01  1.0979E-01  4.4490E-01
                               -3.7554E-01  1.0708E+01 -4.7137E+01  2.5147E+03

           1    3.40016E+00    -2.8101E-03  2.9283E-03 -1.0102E-01  1.0110E-01
ac ID =   33377                -3.0801E-01 -3.5961E-02  1.1417E-01  3.3045E-01
                               -3.7565E-01  1.0713E+01 -4.7148E+01  2.5147E+03

           1    3.50015E+00    -4.9498E-03  3.2470E-03 -1.3183E-01  1.3197E-01
ac ID =   33377                -1.5539E-01  2.6540E-01  4.4154E-02  3.1070E-01
                               -3.7576E-01  1.0719E+01 -4.7160E+01  2.5147E+03

           1    3.60014E+00     5.9955E-03 -3.1870E-03 -5.3053E-02  5.3486E-02
ac ID =   33377                 1.2025E-01  7.4259E-01 -9.7995E-02  7.5862E-01
                               -3.7586E-01  1.0724E+01 -4.7172E+01  2.5147E+03

           1    3.70013E+00     1.0349E-02 -4.9696E-03 -4.6115E-02  4.7522E-02
ac ID =   33377                 3.1444E-01  8.6115E-01 -1.6469E-01  9.3144E-01
                               -3.7596E-01  1.0729E+01 -4.7183E+01  2.5147E+03

           1    3.80012E+00     8.1643E-03 -2.8413E-03 -1.3021E-01  1.3049E-01
ac ID =   33377                 2.4988E-01  1.0908E+00 -6.1145E-02  1.1207E+00
                               -3.7605E-01  1.0734E+01 -4.7195E+01  2.5147E+03

           1    3.90011E+00     1.0495E-02 -4.1469E-04 -1.9314E-01  1.9342E-01
ac ID =   33377                 1.6944E-01  1.1687E+00 -5.4379E-02  1.1821E+00
                               -3.7613E-01  1.0739E+01 -4.7206E+01  2.5147E+03

           1    4.00010E+00     5.6996E-03 -1.0480E-03 -1.4285E-01  1.4296E-01
ac ID =   33377                -1.9025E-02  8.0493E-01 -2.3965E-02  8.0551E-01
                               -3.7619E-01  1.0744E+01 -4.7217E+01  2.5147E+03

           1    4.10009E+00     1.1303E-02  4.6045E-04 -1.0931E-01  1.0989E-01
ac ID =   33377                -8.3218E-02  7.0528E-01 -8.2546E-03  7.1022E-01
                               -3.7623E-01  1.0749E+01 -4.7228E+01  2.5147E+03

           1    4.20008E+00     1.0096E-02  3.6576E-03 -1.5879E-01  1.5915E-01
ac ID =   33377                -2.5275E-01  7.5418E-01  1.0135E-01  8.0184E-01
                               -3.7629E-01  1.0753E+01 -4.7239E+01  2.5147E+03

           1    4.30007E+00     1.5863E-02  5.5688E-03 -2.6311E-01  2.6364E-01
ac ID =   33377                -3.5552E-01  1.2389E+00  8.8175E-02  1.2919E+00
                               -3.7635E-01  1.0758E+01 -4.7249E+01  2.5147E+03

           1    4.40006E+00     2.9452E-02  4.2289E-03 -2.3818E-01  2.4003E-01
ac ID =   33377                -1.3416E-01  1.6498E+00  1.9918E-02  1.6554E+00
                               -3.7641E-01  1.0763E+01 -4.7260E+01  2.5147E+03

           1    4.50005E+00     2.6886E-02  2.0102E-05 -1.5826E-01  1.6053E-01
ac ID =   33377                 1.4530E-01  1.4216E+00  1.2024E-02  1.4291E+00
                               -3.7645E-01  1.0768E+01 -4.7271E+01  2.5147E+03

           1    4.60004E+00     3.3566E-02 -4.7939E-03 -2.0594E-01  2.0871E-01
ac ID =   33377                 3.2181E-01  1.6074E+00 -7.3689E-02  1.6409E+00
                               -3.7649E-01  1.0773E+01 -4.7281E+01  2.5147E+03

           1    4.70003E+00     3.9307E-02  1.0792E-03 -2.9526E-01  2.9787E-01
ac ID =   33377                 1.9462E-01  1.6821E+00 -1.7244E-01  1.7021E+00
                               -3.7651E-01  1.0779E+01 -4.7291E+01  2.5147E+03

           1    4.80002E+00     4.0407E-02  2.9309E-03 -3.2884E-01  3.3133E-01
ac ID =   33377                -6.0709E-02  1.5920E+00 -7.7220E-02  1.5950E+00
                               -3.7650E-01  1.0785E+01 -4.7301E+01  2.5147E+03

           1    4.90001E+00     4.3606E-02  1.2423E-03 -2.7121E-01  2.7469E-01
ac ID =   33377                -3.0399E-02  1.6654E+00 -2.7264E-02  1.6659E+00
                               -3.7649E-01  1.0792E+01 -4.7312E+01  2.5147E+03

           1    5.00000E+00     5.0452E-02  4.7550E-03 -2.6427E-01  2.6908E-01
ac ID =   33377                -3.5518E-01  1.8136E+00  1.3576E-01  1.8530E+00
                               -3.7645E-01  1.0799E+01 -4.7322E+01  2.5147E+03

           1    5.10049E+00     5.1140E-02  4.6119E-03 -3.6001E-01  3.6365E-01
ac ID =   33377                -3.9874E-01  1.9928E+00  1.0278E-01  2.0349E+00
                               -3.7642E-01  1.0807E+01 -4.7332E+01  2.5147E+03

           1    5.20048E+00     6.4286E-02  8.6032E-03 -3.9970E-01  4.0492E-01
ac ID =   33377                -4.3864E-01  2.4736E+00 -1.5032E-01  2.5166E+00
                               -3.7643E-01  1.0817E+01 -4.7342E+01  2.5147E+03

           1    5.30047E+00     7.1210E-02  2.9324E-03 -3.7972E-01  3.8635E-01
ac ID =   33377                -2.8208E-01  2.5553E+00 -9.3922E-02  2.5726E+00
                               -3.7641E-01  1.0827E+01 -4.7353E+01  2.5147E+03

           1    5.40046E+00     7.7614E-02 -1.4534E-04 -3.7702E-01  3.8493E-01
ac ID =   33377                 9.9197E-02  2.6822E+00 -5.2933E-03  2.6841E+00
                               -3.7639E-01  1.0838E+01 -4.7364E+01  2.5147E+03

           1    5.50045E+00     8.2013E-02  1.9954E-04 -4.6540E-01  4.7257E-01
ac ID =   33377                 1.0266E-01  2.8979E+00  3.8649E-02  2.9000E+00
                               -3.7638E-01  1.0851E+01 -4.7375E+01  2.5147E+03

           1    5.60044E+00     8.1730E-02 -1.3012E-04 -5.4747E-01  5.5353E-01
ac ID =   33377                 5.4373E-02  3.0508E+00 -4.9031E-02  3.0516E+00
                               -3.7634E-01  1.0865E+01 -4.7386E+01  2.5147E+03

           1    5.70043E+00     8.7281E-02  3.1780E-03 -5.6747E-01  5.7415E-01
ac ID =   33377                -1.5856E-01  3.1322E+00 -7.1561E-02  3.1370E+00
                               -3.7627E-01  1.0880E+01 -4.7398E+01  2.5147E+03

           1    5.80042E+00     9.8650E-02  4.2970E-03 -5.3138E-01  5.4047E-01
ac ID =   33377                -1.6194E-01  3.1366E+00 -5.6338E-02  3.1413E+00
                               -3.7618E-01  1.0898E+01 -4.7410E+01  2.5147E+03

           1    5.90041E+00     1.0954E-01  3.4000E-03 -5.5195E-01  5.6272E-01
ac ID =   33377                -3.3269E-01  3.5482E+00 -1.3443E-01  3.5663E+00
                               -3.7608E-01  1.0916E+01 -4.7422E+01  2.5147E+03

           1    6.00040E+00     1.0410E-01  1.2789E-02 -6.3444E-01  6.4305E-01
ac ID =   33377                -6.9274E-01  3.6621E+00 -1.0146E-01  3.7285E+00
                               -3.7599E-01  1.0937E+01 -4.7434E+01  2.5147E+03

           1    6.10039E+00     1.1071E-01  6.4850E-03 -6.5099E-01  6.6037E-01
ac ID =   33377                -4.8801E-01  3.6061E+00 -1.6185E-01  3.6425E+00
                               -3.7589E-01  1.0959E+01 -4.7447E+01  2.5147E+03

           1    6.20038E+00     1.1892E-01  6.4857E-03 -6.3010E-01  6.4126E-01
ac ID =   33377                -2.9015E-01  3.6795E+00 -1.4000E-01  3.6936E+00
                               -3.7580E-01  1.0984E+01 -4.7460E+01  2.5147E+03

           1    6.30037E+00     1.1510E-01  4.2573E-03 -6.6089E-01  6.7085E-01
ac ID =   33377                -2.6033E-01  3.5517E+00 -2.2335E-01  3.5683E+00
                               -3.7568E-01  1.1011E+01 -4.7474E+01  2.5147E+03

           1    6.40036E+00     1.2164E-01  5.8611E-03 -7.6924E-01  7.7882E-01
ac ID =   33377                -2.6770E-01  4.0057E+00 -2.2464E-01  4.0209E+00
                               -3.7557E-01  1.1040E+01 -4.7488E+01  2.5147E+03

           1    6.50035E+00     1.3822E-01  1.0761E-03 -8.2938E-01  8.4082E-01
ac ID =   33377                -9.9361E-02  4.6398E+00 -1.1691E-01  4.6424E+00
                               -3.7544E-01  1.1071E+01 -4.7503E+01  2.5147E+03

           1    6.60034E+00     1.3905E-01  2.6721E-03 -8.1995E-01  8.3166E-01
ac ID =   33377                -2.1972E-01  4.7199E+00 -1.2751E-02  4.7250E+00
                               -3.7525E-01  1.1104E+01 -4.7519E+01  2.5147E+03

           1    6.70033E+00     1.3540E-01  7.7187E-03 -8.3357E-01  8.4453E-01
ac ID =   33377                -5.1694E-01  4.8853E+00  9.9498E-02  4.9136E+00
                               -3.7506E-01  1.1140E+01 -4.7535E+01  2.5147E+03

           1    6.80032E+00     1.5666E-01  1.0923E-02 -8.9326E-01  9.0696E-01
ac ID =   33377                -5.5959E-01  5.3287E+00  1.4915E-02  5.3580E+00
                               -3.7488E-01  1.1178E+01 -4.7551E+01  2.5147E+03

           1    6.90031E+00     1.4753E-01 -3.8559E-03 -9.6302E-01  9.7426E-01
ac ID =   33377                -4.1921E-01  5.3256E+00 -1.8617E-02  5.3421E+00
                               -3.7464E-01  1.1219E+01 -4.7568E+01  2.5147E+03

           1    7.00030E+00     1.5034E-01  1.3992E-02 -9.8358E-01  9.9510E-01
ac ID =   33377                -8.8960E-01  5.2977E+00  6.9760E-02  5.3723E+00
                               -3.7441E-01  1.1262E+01 -4.7585E+01  2.5147E+03

           1    7.10029E+00     1.6556E-01  1.6050E-02 -1.0168E+00  1.0303E+00
ac ID =   33377                -6.3175E-01  5.7685E+00  1.2454E-01  5.8043E+00
                               -3.7419E-01  1.1308E+01 -4.7603E+01  2.5147E+03

           1    7.20028E+00     1.5288E-01 -7.8945E-03 -1.0891E+00  1.0998E+00
ac ID =   33377                -1.9605E-01  5.5557E+00  1.2460E-01  5.5606E+00
                               -3.7388E-01  1.1357E+01 -4.7622E+01  2.5147E+03

           1    7.30027E+00     1.7179E-01  1.1593E-02 -1.1942E+00  1.2066E+00
ac ID =   33377                -5.8724E-01  6.3564E+00  4.1160E-02  6.3836E+00
                               -3.7360E-01  1.1408E+01 -4.7640E+01  2.5147E+03

           1    7.40026E+00     1.8539E-01  1.0283E-02 -1.2368E+00  1.2507E+00
ac ID =   33377                -4.4899E-01  6.8668E+00  9.3442E-02  6.8821E+00
                               -3.7330E-01  1.1461E+01 -4.7660E+01  2.5147E+03

           1    7.50025E+00     1.7957E-01  9.6858E-04 -1.2450E+00  1.2579E+00
ac ID =   33377                -1.3691E-01  6.8763E+00  1.4690E-01  6.8792E+00
                               -3.7295E-01  1.1518E+01 -4.7679E+01  2.5147E+03

           1    7.60024E+00     1.9500E-01 -2.2097E-03 -1.2985E+00  1.3131E+00
ac ID =   33377                -3.8845E-01  7.3473E+00 -7.6139E-02  7.3580E+00
                               -3.7253E-01  1.1576E+01 -4.7699E+01  2.5147E+03

           1    7.70023E+00     1.9330E-01  7.0337E-03 -1.3437E+00  1.3576E+00
ac ID =   33377                -6.5746E-01  7.2558E+00 -2.4391E-01  7.2896E+00
                               -3.7215E-01  1.1638E+01 -4.7718E+01  2.5147E+03

           1    7.80022E+00     1.8752E-01  5.3687E-03 -1.3993E+00  1.4118E+00
ac ID =   33377                -5.5280E-01  7.2400E+00 -1.2336E-01  7.2621E+00
                               -3.7176E-01  1.1702E+01 -4.7738E+01  2.5147E+03

           1    7.90021E+00     1.9220E-01  1.0898E-03 -1.4353E+00  1.4481E+00
ac ID =   33377                -6.6521E-01  7.3200E+00 -2.6071E-02  7.3502E+00
                               -3.7130E-01  1.1768E+01 -4.7759E+01  2.5147E+03

           1    8.00020E+00     2.2017E-01  2.5945E-02 -1.4881E+00  1.5045E+00
ac ID =   33377                -1.1717E+00  8.1732E+00 -1.2070E-01  8.2576E+00
                               -3.7085E-01  1.1837E+01 -4.7779E+01  2.5147E+03

           1    8.10019E+00     2.0361E-01  1.1187E-02 -1.5918E+00  1.6048E+00
ac ID =   33377                -8.0262E-01  8.3380E+00 -8.5039E-02  8.3770E+00
                               -3.7025E-01  1.1909E+01 -4.7799E+01  2.5147E+03

           1    8.20018E+00     2.1890E-01 -7.3031E-03 -1.6597E+00  1.6741E+00
ac ID =   33377                -1.9492E-01  9.0415E+00 -1.4188E-01  9.0448E+00
                               -3.6964E-01  1.1983E+01 -4.7819E+01  2.5147E+03

           1    8.30017E+00     2.4299E-01  1.9204E-02 -1.6997E+00  1.7171E+00
ac ID =   33377                -9.1220E-01  9.9059E+00  1.3986E-02  9.9478E+00
                               -3.6904E-01  1.2060E+01 -4.7839E+01  2.5147E+03

           1    8.40016E+00     2.3665E-01  5.2361E-03 -1.7512E+00  1.7671E+00
ac ID =   33377                -3.7177E-01  9.9576E+00 -1.0300E-01  9.9651E+00
                               -3.6842E-01  1.2140E+01 -4.7858E+01  2.5147E+03

           1    8.50015E+00     2.3873E-01  7.8322E-04 -1.8293E+00  1.8449E+00
ac ID =   33377                -4.3806E-01  1.0360E+01 -9.0928E-02  1.0370E+01
                               -3.6771E-01  1.2222E+01 -4.7878E+01  2.5147E+03

           1    8.60014E+00     2.4883E-01  4.7149E-03 -1.9010E+00  1.9172E+00
ac ID =   33377                -5.4841E-01  1.0629E+01 -4.7212E-02  1.0644E+01
                               -3.6697E-01  1.2306E+01 -4.7897E+01  2.5147E+03

           1    8.70013E+00     2.5446E-01  1.8293E-02 -1.9646E+00  1.9811E+00
ac ID =   33377                -9.1164E-01  1.0860E+01 -1.8341E-01  1.0899E+01
                               -3.6619E-01  1.2393E+01 -4.7915E+01  2.5147E+03

           1    8.80012E+00     2.4973E-01  6.4580E-03 -2.0341E+00  2.0494E+00
ac ID =   33377                -8.1718E-01  1.0846E+01 -5.5761E-02  1.0877E+01
                               -3.6536E-01  1.2483E+01 -4.7933E+01  2.5147E+03

           1    8.90011E+00     2.7084E-01  1.1480E-02 -2.1031E+00  2.1205E+00
ac ID =   33377                -1.0897E+00  1.1599E+01  7.8245E-02  1.1650E+01
                               -3.6453E-01  1.2575E+01 -4.7950E+01  2.5147E+03

           1    9.00010E+00     2.9088E-01  1.0123E-02 -2.1929E+00  2.2122E+00
ac ID =   33377                -1.0502E+00  1.2316E+01  4.6072E-03  1.2361E+01
                               -3.6365E-01  1.2669E+01 -4.7967E+01  2.5147E+03

           1    9.10009E+00     2.8514E-01  3.7081E-03 -2.2463E+00  2.2643E+00
ac ID =   33377                -7.4241E-01  1.2678E+01  7.7960E-02  1.2700E+01
                               -3.6275E-01  1.2766E+01 -4.7982E+01  2.5147E+03

           1    9.20008E+00     3.0251E-01  7.9352E-03 -2.3040E+00  2.3238E+00
ac ID =   33377                -6.8332E-01  1.3197E+01 -1.1345E-01  1.3215E+01
                               -3.6186E-01  1.2865E+01 -4.7997E+01  2.5147E+03

           1    9.30007E+00     3.0334E-01  4.4783E-03 -2.3733E+00  2.3926E+00
ac ID =   33377                -5.2288E-01  1.3414E+01 -3.4530E-01  1.3428E+01
                               -3.6087E-01  1.2966E+01 -4.8011E+01  2.5147E+03

           1    9.40006E+00     3.0351E-01 -4.0524E-03 -2.4492E+00  2.4680E+00
ac ID =   33377                -4.3543E-01  1.3758E+01 -1.5206E-01  1.3766E+01
                               -3.5982E-01  1.3069E+01 -4.8024E+01  2.5147E+03

           1    9.50005E+00     3.1473E-01  4.5152E-03 -2.5113E+00  2.5309E+00
ac ID =   33377                -6.3739E-01  1.4343E+01 -4.5592E-02  1.4357E+01
                               -3.5881E-01  1.3175E+01 -4.8036E+01  2.5147E+03

           1    9.60004E+00     3.2327E-01  1.0351E-02 -2.5607E+00  2.5811E+00
ac ID =   33377                -9.5336E-01  1.4837E+01  6.9846E-03  1.4867E+01
                               -3.5771E-01  1.3283E+01 -4.8046E+01  2.5147E+03

           1    9.70003E+00     3.3591E-01  3.4714E-03 -2.6119E+00  2.6334E+00
ac ID =   33377                -8.3452E-01  1.5459E+01 -1.3049E-01  1.5482E+01
                               -3.5652E-01  1.3393E+01 -4.8056E+01  2.5147E+03

           1    9.80002E+00     3.3626E-01  4.1092E-03 -2.6735E+00  2.6945E+00
ac ID =   33377                -9.9953E-01  1.5995E+01 -6.4598E-02  1.6026E+01
                               -3.5536E-01  1.3505E+01 -4.8063E+01  2.5147E+03

           1    9.90001E+00     3.3820E-01  5.0693E-03 -2.7327E+00  2.7536E+00
ac ID =   33377                -8.4965E-01  1.6271E+01  1.5100E-01  1.6294E+01
                               -3.5417E-01  1.3619E+01 -4.8070E+01  2.5147E+03

           1    1.00005E+01     3.5728E-01  5.7183E-03 -2.7920E+00  2.8148E+00
ac ID =   33377                -8.1409E-01  1.6946E+01  2.9218E-01  1.6968E+01
                               -3.5290E-01  1.3735E+01 -4.8074E+01  2.5147E+03

           1    1.01005E+01     3.6154E-01  4.6418E-03 -2.8615E+00  2.8842E+00
ac ID =   33377                -5.4440E-01  1.7523E+01  4.8361E-02  1.7531E+01
                               -3.5161E-01  1.3852E+01 -4.8077E+01  2.5147E+03

           1    1.02005E+01     3.4928E-01  4.5225E-04 -2.9211E+00  2.9419E+00
ac ID =   33377                -4.9676E-01  1.7639E+01 -8.2944E-02  1.7646E+01
                               -3.5026E-01  1.3971E+01 -4.8078E+01  2.5147E+03

           1    1.03005E+01     3.6233E-01 -1.5343E-03 -2.9882E+00  3.0101E+00
ac ID =   33377                -3.1450E-01  1.8174E+01 -1.9821E-01  1.8178E+01
                               -3.4883E-01  1.4091E+01 -4.8076E+01  2.5147E+03

           1    1.04005E+01     3.6655E-01  5.1948E-03 -3.0251E+00  3.0472E+00
ac ID =   33377                -6.6130E-01  1.8673E+01 -5.4025E-02  1.8685E+01
                               -3.4735E-01  1.4212E+01 -4.8072E+01  2.5147E+03

           1    1.05004E+01     3.7292E-01  5.9712E-03 -3.0592E+00  3.0819E+00
ac ID =   33377                -6.0699E-01  1.8820E+01  2.5001E-01  1.8832E+01
                               -3.4578E-01  1.4335E+01 -4.8066E+01  2.5147E+03

           1    1.06004E+01     3.7360E-01 -1.1745E-03 -3.0893E+00  3.1118E+00
ac ID =   33377                -5.6454E-01  1.9337E+01  2.3833E-01  1.9347E+01
                               -3.4411E-01  1.4458E+01 -4.8057E+01  2.5147E+03

           1    1.07004E+01     3.8248E-01  3.5767E-03 -3.1174E+00  3.1408E+00
ac ID =   33377                -5.8042E-01  1.9353E+01  3.8577E-01  1.9366E+01
                               -3.4237E-01  1.4583E+01 -4.8045E+01  2.5147E+03

           1    1.08004E+01     3.7348E-01 -7.5253E-04 -3.1739E+00  3.1958E+00
ac ID =   33377                -6.1163E-01  1.9604E+01  4.4562E-01  1.9619E+01
                               -3.4060E-01  1.4708E+01 -4.8030E+01  2.5147E+03

           1    1.09004E+01     3.8211E-01  6.5411E-03 -3.1992E+00  3.2219E+00
ac ID =   33377                -3.3125E-01  1.9586E+01  3.5761E-01  1.9592E+01
                               -3.3874E-01  1.4834E+01 -4.8012E+01  2.5147E+03

           1    1.10004E+01     3.9918E-01 -7.2234E-03 -3.2491E+00  3.2735E+00
ac ID =   33377                -1.8564E-01  2.0262E+01  1.3665E-01  2.0263E+01
                               -3.3675E-01  1.4961E+01 -4.7991E+01  2.5147E+03

           1    1.11004E+01     4.0023E-01 -5.8929E-04 -3.3085E+00  3.3326E+00
ac ID =   33377                -9.9545E-02  2.0913E+01 -1.0594E-01  2.0913E+01
                               -3.3474E-01  1.5088E+01 -4.7967E+01  2.5147E+03

           1    1.12004E+01     4.0245E-01  4.9082E-03 -3.3350E+00  3.3592E+00
ac ID =   33377                -2.4970E-01  2.1394E+01 -1.5131E-01  2.1396E+01
                               -3.3264E-01  1.5216E+01 -4.7939E+01  2.5147E+03

           1    1.13004E+01     4.1908E-01 -4.2988E-03 -3.3518E+00  3.3779E+00
ac ID =   33377                -1.0661E-01  2.2224E+01  1.5844E-02  2.2224E+01
                               -3.3042E-01  1.5345E+01 -4.7909E+01  2.5147E+03

           1    1.14004E+01     4.2464E-01 -5.3437E-03 -3.3789E+00  3.4054E+00
ac ID =   33377                -2.1660E-01  2.2021E+01  1.4567E-01  2.2023E+01
                               -3.2811E-01  1.5474E+01 -4.7875E+01  2.5147E+03

           1    1.15003E+01     4.2342E-01  6.9882E-03 -3.3880E+00  3.4144E+00
ac ID =   33377                -5.1206E-01  2.2348E+01 -1.5419E-02  2.2353E+01
                               -3.2577E-01  1.5604E+01 -4.7838E+01  2.5147E+03

           1    1.16003E+01     4.2821E-01  3.2203E-03 -3.4118E+00  3.4385E+00
ac ID =   33377                -2.6885E-01  2.2717E+01 -1.7266E-01  2.2719E+01
                               -3.2336E-01  1.5734E+01 -4.7798E+01  2.5147E+03

           1    1.17003E+01     4.3945E-01  3.3605E-04 -3.4572E+00  3.4850E+00
ac ID =   33377                -2.5236E-01  2.3208E+01 -2.4068E-01  2.3211E+01
                               -3.2085E-01  1.5865E+01 -4.7755E+01  2.5147E+03

           1    1.18003E+01     4.4116E-01  6.1605E-03 -3.4700E+00  3.4980E+00
ac ID =   33377                -2.2849E-01  2.3567E+01  5.0448E-02  2.3568E+01
                               -3.1830E-01  1.5996E+01 -4.7708E+01  2.5147E+03

           1    1.19003E+01     4.5517E-01 -5.6942E-03 -3.5046E+00  3.5340E+00
ac ID =   33377                 2.8170E-01  2.4094E+01  2.1453E-01  2.4097E+01
                               -3.1570E-01  1.6128E+01 -4.7658E+01  2.5147E+03

           1    1.20003E+01     4.3967E-01 -1.1905E-02 -3.4710E+00  3.4987E+00
ac ID =   33377                 4.2285E-01  2.4163E+01  9.8957E-02  2.4167E+01
                               -3.1298E-01  1.6260E+01 -4.7605E+01  2.5147E+03

           1    1.21003E+01     4.5717E-01  1.3738E-02 -3.4594E+00  3.4895E+00
ac ID =   33377                 1.4799E-02  2.4364E+01  6.5740E-02  2.4365E+01
                               -3.1025E-01  1.6392E+01 -4.7548E+01  2.5147E+03

           1    1.22003E+01     4.6365E-01 -1.8388E-02 -3.4657E+00  3.4966E+00
ac ID =   33377                 4.1832E-01  2.4583E+01  3.4066E-02  2.4587E+01
                               -3.0737E-01  1.6524E+01 -4.7487E+01  2.5147E+03

           1    1.23003E+01     4.5141E-01 -5.4188E-03 -3.4135E+00  3.4432E+00
ac ID =   33377                 1.0902E-01  2.3893E+01  1.4259E-01  2.3894E+01
                               -3.0443E-01  1.6657E+01 -4.7424E+01  2.5147E+03

           1    1.24003E+01     4.6324E-01  7.0514E-03 -3.4032E+00  3.4346E+00
ac ID =   33377                -1.3008E-01  2.4387E+01  4.6172E-03  2.4387E+01
                               -3.0148E-01  1.6789E+01 -4.7356E+01  2.5147E+03

           1    1.25002E+01     4.5568E-01 -3.8193E-03 -3.3865E+00  3.4171E+00
ac ID =   33377                -9.9649E-02  2.4470E+01  3.3593E-02  2.4470E+01
                               -2.9845E-01  1.6922E+01 -4.7286E+01  2.5147E+03

           1    1.26002E+01     4.5620E-01  6.2069E-03 -3.3594E+00  3.3902E+00
ac ID =   33377                -4.4141E-02  2.4626E+01  3.2989E-01  2.4628E+01
                               -2.9538E-01  1.7055E+01 -4.7211E+01  2.5147E+03

           1    1.27002E+01     4.7236E-01 -3.3058E-03 -3.3446E+00  3.3778E+00
ac ID =   33377                 2.3313E-01  2.5130E+01  5.9678E-01  2.5138E+01
                               -2.9227E-01  1.7187E+01 -4.7134E+01  2.5147E+03

           1    1.28002E+01     4.5842E-01  6.8714E-03 -3.2948E+00  3.3265E+00
ac ID =   33377                 4.6305E-01  2.5201E+01 -2.6345E-01  2.5206E+01
                               -2.8914E-01  1.7320E+01 -4.7053E+01  2.5147E+03

           1    1.29002E+01     4.4449E-01 -2.9750E-03 -3.2516E+00  3.2818E+00
ac ID =   33377                 4.8351E-01  2.5075E+01 -7.6137E-01  2.5091E+01
                               -2.8591E-01  1.7452E+01 -4.6968E+01  2.5147E+03

           1    1.30002E+01     4.8701E-01 -8.1956E-03 -3.2740E+00  3.3100E+00
ac ID =   33377                 6.8975E-01  2.5439E+01 -2.2369E-01  2.5450E+01
                               -2.8263E-01  1.7585E+01 -4.6881E+01  2.5147E+03

           1    1.31002E+01     3.7468E-01  9.4445E-03 -3.0766E+00  3.0993E+00
ac ID =   33377                 3.1807E-01  2.3798E+01 -1.3642E-01  2.3800E+01
                               -2.7935E-01  1.7717E+01 -4.6789E+01  2.5147E+03

           1    1.32002E+01     4.4222E-01  1.3653E-02 -2.9578E+00  2.9907E+00
ac ID =   33377                 2.3310E-01  2.3367E+01  3.2678E-01  2.3371E+01
                               -2.7593E-01  1.7848E+01 -4.6694E+01  2.5147E+03

           1    1.33002E+01     4.4804E-01  1.2416E-02 -3.0963E+00  3.1286E+00
ac ID =   33377                -3.1403E-01  2.4443E+01 -1.4909E-01  2.4445E+01
                               -2.7250E-01  1.7978E+01 -4.6595E+01  2.5147E+03

           1    1.34002E+01     3.8056E-01 -1.4902E-03 -2.9610E+00  2.9854E+00
ac ID =   33377                 1.4161E-01  2.2428E+01 -7.8364E-01  2.2442E+01
                               -2.6898E-01  1.8107E+01 -4.6491E+01  2.5147E+03

           1    1.35001E+01     3.9637E-01  1.2581E-02 -2.8476E+00  2.8751E+00
ac ID =   33377                -5.6250E-02  2.2172E+01 -3.0768E-01  2.2174E+01
                               -2.6538E-01  1.8235E+01 -4.6384E+01  2.5147E+03

           1    1.36001E+01     4.0740E-01  9.9499E-03 -2.7699E+00  2.7997E+00
ac ID =   33377                -1.8997E-02  2.2272E+01  2.2250E-01  2.2273E+01
                               -2.6176E-01  1.8362E+01 -4.6273E+01  2.5147E+03

           1    1.37001E+01     4.3847E-01  1.6987E-03 -2.7447E+00  2.7795E+00
ac ID =   33377                 6.3389E-01  2.1977E+01  9.6146E-01  2.2007E+01
                               -2.5806E-01  1.8487E+01 -4.6158E+01  2.5147E+03

           1    1.38001E+01     3.3410E-01 -2.3967E-02 -2.6351E+00  2.6563E+00
ac ID =   33377                 9.5681E-01  2.1122E+01  2.9508E-01  2.1145E+01
                               -2.5424E-01  1.8612E+01 -4.6040E+01  2.5147E+03

           1    1.39001E+01     3.9273E-01  2.8993E-02 -2.5272E+00  2.5577E+00
ac ID =   33377                 2.2062E-01  1.9935E+01 -5.6241E-01  1.9944E+01
                               -2.5039E-01  1.8735E+01 -4.5918E+01  2.5147E+03

           1    1.40001E+01     4.4659E-01 -2.2660E-03 -2.5448E+00  2.5837E+00
ac ID =   33377                 4.6894E-01  2.2164E+01 -7.4717E-01  2.2181E+01
                               -2.4644E-01  1.8858E+01 -4.5793E+01  2.5147E+03

           1    1.41001E+01     3.0780E-01  9.1841E-03 -2.3322E+00  2.3525E+00
ac ID =   33377                 3.5042E-01  1.8519E+01  2.6287E-01  1.8524E+01
                               -2.4241E-01  1.8980E+01 -4.5664E+01  2.5147E+03

           1    1.42001E+01     3.5386E-01  9.6305E-03 -2.3113E+00  2.3383E+00
ac ID =   33377                 1.7328E-01  1.9180E+01  4.7388E-01  1.9186E+01
                               -2.3836E-01  1.9101E+01 -4.5532E+01  2.5147E+03

           1    1.43001E+01     4.2653E-01  1.7835E-02 -2.2802E+00  2.3199E+00
ac ID =   33377                -2.9153E-01  2.0664E+01  1.1970E-02  2.0666E+01
                               -2.3427E-01  1.9221E+01 -4.5398E+01  2.5147E+03

           1    1.44001E+01     3.8119E-01  4.3743E-03 -2.1284E+00  2.1622E+00
ac ID =   33377                 5.9685E-01  1.8581E+01 -7.0108E-01  1.8603E+01
                               -2.3016E-01  1.9340E+01 -4.5261E+01  2.5147E+03

           1    1.45000E+01     2.7793E-01  1.6374E-02 -2.0234E+00  2.0424E+00
ac ID =   33377                 1.0867E-01  1.7218E+01 -5.6726E-01  1.7227E+01
                               -2.2598E-01  1.9460E+01 -4.5122E+01  2.5147E+03

           1    1.46000E+01     4.3441E-01 -7.4281E-03 -2.0194E+00  2.0656E+00
ac ID =   33377                 1.1482E+00  1.8200E+01 -3.1984E-02  1.8236E+01
                               -2.2175E-01  1.9578E+01 -4.4980E+01  2.5147E+03

           1    1.47000E+01     3.6008E-01  8.9452E-03 -1.9543E+00  1.9872E+00
ac ID =   33377                 3.8924E-01  1.7490E+01  6.7101E-01  1.7507E+01
                               -2.1751E-01  1.9697E+01 -4.4836E+01  2.5147E+03

           1    1.48005E+01     2.9132E-01  1.1139E-02 -1.7696E+00  1.7935E+00
ac ID =   33377                 9.8730E-01  1.3889E+01  1.2047E-01  1.3925E+01
                               -2.1316E-01  1.9816E+01 -4.4690E+01  2.5147E+03

           1    1.49005E+01     3.6606E-01 -2.1600E-02 -1.7226E+00  1.7612E+00
ac ID =   33377                 1.0103E+00  1.6157E+01 -2.7933E-01  1.6191E+01
                               -2.0867E-01  1.9934E+01 -4.4543E+01  2.5147E+03

           1    1.50005E+01     3.4473E-01  2.0932E-02 -1.6343E+00  1.6704E+00
ac ID =   33377                 1.6148E-01  1.4336E+01 -2.5658E-01  1.4339E+01
                               -2.0425E-01  2.0052E+01 -4.4393E+01  2.5147E+03

           1    1.51005E+01     2.5903E-01  1.0873E-02 -1.5347E+00  1.5564E+00
ac ID =   33377                 4.0198E-01  1.2753E+01  4.3315E-02  1.2760E+01
                               -1.9976E-01  2.0170E+01 -4.4243E+01  2.5147E+03

           1    1.52005E+01     3.0803E-01 -1.4071E-03 -1.4012E+00  1.4346E+00
ac ID =   33377                 5.3127E-01  1.2998E+01  9.6083E-01  1.3045E+01
                               -1.9510E-01  2.0288E+01 -4.4091E+01  2.5147E+03

           1    1.53005E+01     3.2343E-01  1.1149E-02 -1.3232E+00  1.3622E+00
ac ID =   33377                 8.5557E-01  1.1966E+01  2.1702E-01  1.1999E+01
                               -1.9052E-01  2.0406E+01 -4.3938E+01  2.5147E+03

           1    1.54005E+01     2.1406E-01  1.1137E-03 -1.2017E+00  1.2206E+00
ac ID =   33377                 5.7115E-01  1.0304E+01 -3.7916E-01  1.0327E+01
                               -1.8582E-01  2.0525E+01 -4.3784E+01  2.5147E+03

           1    1.55004E+01     2.7480E-01  6.9828E-03 -1.1203E+00  1.1535E+00
ac ID =   33377                 1.4459E+00  9.9066E+00 -7.2096E-01  1.0037E+01
                               -1.8117E-01  2.0643E+01 -4.3629E+01  2.5147E+03

           1    1.56004E+01     2.5695E-01 -1.1376E-02 -1.0413E+00  1.0726E+00
ac ID =   33377                 1.0300E+00  9.5549E+00 -3.3250E-01  9.6160E+00
                               -1.7633E-01  2.0762E+01 -4.3474E+01  2.5147E+03

           1    1.57004E+01     2.0069E-01  2.8321E-03 -8.8976E-01  9.1212E-01
ac ID =   33377                 1.5653E+00  7.5261E+00  3.0497E-01  7.6932E+00
                               -1.7156E-01  2.0881E+01 -4.3317E+01  2.5147E+03

           1    1.58004E+01     2.1277E-01  2.0944E-02 -8.4025E-01  8.6703E-01
ac ID =   33377                 5.8116E-01  7.7241E+00  5.2649E-01  7.7638E+00
                               -1.6670E-01  2.1000E+01 -4.3161E+01  2.5147E+03

           1    1.59004E+01     2.2047E-01 -2.5545E-02 -7.0665E-01  7.4069E-01
ac ID =   33377                 1.6625E+00  6.5380E+00 -4.8377E-01  6.7634E+00
                               -1.6169E-01  2.1119E+01 -4.3004E+01  2.5147E+03

           1    1.60004E+01     1.5876E-01  7.9824E-03 -6.4684E-01  6.6609E-01
ac ID =   33377                 4.9634E-01  5.3739E+00 -8.2232E-01  5.4591E+00
                               -1.5676E-01  2.1239E+01 -4.2846E+01  2.5147E+03

           1    1.61004E+01     1.5116E-01  1.9802E-02 -5.4800E-01  5.6881E-01
ac ID =   33377                 1.8305E-01  4.7252E+00 -7.5873E-02  4.7293E+00
                               -1.5180E-01  2.1360E+01 -4.2689E+01  2.5147E+03

           1    1.62004E+01     1.7402E-01 -1.6733E-02 -4.1523E-01  4.5054E-01
ac ID =   33377                 1.4140E+00  4.2857E+00  1.0011E+00  4.6227E+00
                               -1.4676E-01  2.1480E+01 -4.2531E+01  2.5147E+03

           1    1.63004E+01     1.0934E-01 -1.2618E-02 -3.8224E-01  3.9778E-01
ac ID =   33377                 1.2468E+00  4.0829E+00  1.1877E+00  4.4311E+00
                               -1.4169E-01  2.1601E+01 -4.2374E+01  2.5147E+03

           1    1.64004E+01     1.7241E-01  1.9079E-02 -2.8250E-01  3.3151E-01
ac ID =   33377                 7.7805E-01  4.9111E+00 -2.8427E-01  4.9805E+00
                               -1.3666E-01  2.1723E+01 -4.2217E+01  2.5147E+03

           1    1.65003E+01     1.1955E-01 -8.8330E-04 -2.2726E-01  2.5679E-01
ac ID =   33377                 1.3911E+00  5.3836E+00 -6.8574E-01  5.6025E+00
                               -1.3161E-01  2.1845E+01 -4.2060E+01  2.5147E+03

           1    1.66003E+01     1.5488E-01 -3.0313E-02 -1.3586E-01  2.0824E-01
ac ID =   33377                 1.7991E+00  5.8461E+00 -1.6364E-02  6.1167E+00
                               -1.2629E-01  2.1967E+01 -4.1904E+01  2.5147E+03

           1    1.67003E+01     1.3512E-01  9.5479E-03 -4.9133E-02  1.4409E-01
ac ID =   33377                 1.1981E+00  6.2914E+00  5.6101E-01  6.4290E+00
                               -1.2120E-01  2.2089E+01 -4.1749E+01  2.5147E+03

           1    1.68003E+01     1.4021E-01  2.1945E-02  4.3396E-02  1.4840E-01
ac ID =   33377                 8.5917E-01  6.4307E+00  8.8468E-01  6.5479E+00
                               -1.1599E-01  2.2212E+01 -4.1594E+01  2.5147E+03

           1    1.69003E+01     1.3523E-01 -2.8813E-02  1.1985E-01  1.8298E-01
ac ID =   33377                 1.6144E+00  6.6485E+00 -2.5288E-01  6.8464E+00
                               -1.1060E-01  2.2335E+01 -4.1440E+01  2.5147E+03

           1    1.70003E+01     1.3623E-01 -5.1639E-03  2.1818E-01  2.5727E-01
ac ID =   33377                 1.2884E+00  7.3592E+00 -5.7486E-01  7.4932E+00
                               -1.0536E-01  2.2459E+01 -4.1288E+01  2.5147E+03

           1    1.71003E+01     1.5401E-01  1.6785E-02  3.0781E-01  3.4460E-01
ac ID =   33377                 5.8975E-01  7.6696E+00  8.1192E-02  7.6927E+00
                               -1.0000E-01  2.2582E+01 -4.1136E+01  2.5147E+03

           1    1.72003E+01     1.5238E-01  8.0585E-04  3.5724E-01  3.8839E-01
ac ID =   33377                 1.3725E+00  8.3616E+00  4.8504E-01  8.4874E+00
                               -9.4649E-02  2.2706E+01 -4.0986E+01  2.5147E+03

           1    1.73003E+01     1.4176E-01 -1.2798E-02  4.0485E-01  4.2914E-01
ac ID =   33377                 1.6163E+00  8.0164E+00  4.0495E-01  8.1878E+00
                               -8.9207E-02  2.2831E+01 -4.0838E+01  2.5147E+03

           1    1.74003E+01     1.4653E-01 -3.8414E-03  5.0399E-01  5.2487E-01
ac ID =   33377                 1.0565E+00  7.9597E+00 -6.7898E-01  8.0581E+00
                               -8.3758E-02  2.2955E+01 -4.0691E+01  2.5147E+03

           1    1.75002E+01     1.3606E-01  1.6126E-02  5.6396E-01  5.8037E-01
ac ID =   33377                 1.1620E+00  7.9139E+00 -8.3721E-01  8.0424E+00
                               -7.8334E-02  2.3080E+01 -4.0546E+01  2.5147E+03

           1    1.76002E+01     1.3009E-01 -1.2212E-02  6.1397E-01  6.2772E-01
ac ID =   33377                 1.6865E+00  7.6698E+00 -2.4862E-01  7.8570E+00
                               -7.2813E-02  2.3205E+01 -4.0403E+01  2.5147E+03

           1    1.77002E+01     1.3707E-01 -1.4675E-02  6.9255E-01  7.0614E-01
ac ID =   33377                 1.5184E+00  7.7876E+00  5.1198E-01  7.9508E+00
                               -6.7230E-02  2.3330E+01 -4.0262E+01  2.5147E+03

           1    1.78002E+01     1.4803E-01  1.1145E-02  7.4908E-01  7.6365E-01
ac ID =   33377                 5.9260E-01  7.9071E+00  4.5485E-01  7.9423E+00
                               -6.1689E-02  2.3456E+01 -4.0124E+01  2.5147E+03

           1    1.79002E+01     8.9127E-02 -9.5814E-04  7.9464E-01  7.9962E-01
ac ID =   33377                 1.1750E+00  6.4660E+00 -2.0046E-02  6.5719E+00
                               -5.6151E-02  2.3583E+01 -3.9987E+01  2.5147E+03

           1    1.80002E+01     1.1830E-01 -2.1835E-02  8.6049E-01  8.6886E-01
ac ID =   33377                 1.5621E+00  6.6018E+00 -3.5803E-01  6.7935E+00
                               -5.0466E-02  2.3709E+01 -3.9854E+01  2.5147E+03

           1    1.81002E+01     1.1838E-01  1.4171E-02  8.8946E-01  8.9741E-01
ac ID =   33377                 5.5364E-01  6.6394E+00 -2.4001E-02  6.6624E+00
                               -4.4893E-02  2.3837E+01 -3.9722E+01  2.5147E+03

           1    1.82002E+01     7.1106E-02 -5.2187E-06  9.4459E-01  9.4726E-01
ac ID =   33377                 1.1044E+00  5.2190E+00  2.1703E-01  5.3390E+00
                               -3.9326E-02  2.3965E+01 -3.9594E+01  2.5147E+03

           1    1.83002E+01     8.1101E-02 -1.7218E-02  1.0034E+00  1.0068E+00
ac ID =   33377                 1.5326E+00  5.0033E+00  2.7952E-01  5.2402E+00
                               -3.3644E-02  2.4093E+01 -3.9468E+01  2.5147E+03

           1    1.84002E+01     9.9163E-02  7.8447E-03  1.0029E+00  1.0078E+00
ac ID =   33377                 1.2159E+00  5.1346E+00 -1.9834E-02  5.2766E+00
                               -2.8040E-02  2.4222E+01 -3.9344E+01  2.5147E+03

           1    1.85001E+01     3.6553E-02 -1.4146E-03  1.0621E+00  1.0627E+00
ac ID =   33377                 1.0645E+00  3.4649E+00 -2.8918E-01  3.6363E+00
                               -2.2370E-02  2.4352E+01 -3.9224E+01  2.5147E+03

           1    1.86001E+01     5.1920E-02 -5.4256E-03  1.1078E+00  1.1091E+00
ac ID =   33377                 1.2864E+00  3.3264E+00 -8.9836E-02  3.5676E+00
                               -1.6746E-02  2.4482E+01 -3.9106E+01  2.5147E+03

           1    1.87001E+01     6.5979E-02 -1.3390E-02  1.1154E+00  1.1174E+00
ac ID =   33377                 1.1904E+00  3.5309E+00  1.2486E-01  3.7283E+00
                               -1.1019E-02  2.4613E+01 -3.8991E+01  2.5147E+03

           1    1.88001E+01     3.3070E-02  9.5255E-03  1.1550E+00  1.1555E+00
ac ID =   33377                 6.9919E-01  2.0240E+00  5.0384E-01  2.1998E+00
                               -5.4025E-03  2.4744E+01 -3.8879E+01  2.5147E+03

           1    1.89001E+01     1.4365E-02  1.2649E-02  1.2000E+00  1.2001E+00
ac ID =   33377                 6.6487E-01  1.4695E+00  2.4737E-01  1.6317E+00
                                2.1912E-04  2.4877E+01 -3.8770E+01  2.5147E+03

           1    1.90001E+01     4.1004E-02 -1.6717E-02  1.2065E+00  1.2073E+00
ac ID =   33377                 1.2393E+00  1.3466E+00 -1.7864E-01  1.8388E+00
                                5.8937E-03  2.5010E+01 -3.8664E+01  2.5147E+03

           1    1.91001E+01     1.1050E-02  8.6181E-04  1.2206E+00  1.2207E+00
ac ID =   33377                 8.0156E-01  3.4012E-01 -3.3036E-01  9.3130E-01
                                1.1528E-02  2.5143E+01 -3.8561E+01  2.5147E+03

           1    1.92001E+01     1.3480E-02  9.5320E-03  1.2565E+00  1.2566E+00
ac ID =   33377                 6.7719E-01  2.4918E-01 -2.0535E-01  7.5023E-01
                                1.7091E-02  2.5278E+01 -3.8461E+01  2.5147E+03

           1    1.93001E+01     1.3475E-02 -2.9115E-04  1.2726E+00  1.2726E+00
ac ID =   33377                 1.1889E+00 -1.5006E-01  4.3210E-01  1.2739E+00
                                2.2686E-02  2.5413E+01 -3.8364E+01  2.5147E+03

           1    1.94001E+01     1.1788E-02 -1.4535E-02  1.2627E+00  1.2628E+00
ac ID =   33377                 1.3759E+00 -7.1734E-01  1.3466E-01  1.5575E+00
                                2.8301E-02  2.5549E+01 -3.8270E+01  2.5147E+03

           1    1.95000E+01    -4.3555E-03  1.0998E-02  1.3048E+00  1.3049E+00
ac ID =   33377                 4.6759E-01 -1.6173E+00  7.4627E-02  1.6852E+00
                                3.3871E-02  2.5686E+01 -3.8179E+01  2.5147E+03

           1    1.96000E+01     9.7848E-03  3.2455E-03  1.3157E+00  1.3157E+00
ac ID =   33377                 8.3318E-01 -2.0901E+00 -2.7293E-01  2.2666E+00
                                3.9401E-02  2.5824E+01 -3.8091E+01  2.5147E+03

           1    1.97005E+01    -2.9955E-03 -7.5088E-03  1.2859E+00  1.2859E+00
ac ID =   33377                 8.6269E-01 -2.5564E+00 -1.3281E-01  2.7013E+00
                                4.5005E-02  2.5964E+01 -3.8006E+01  2.5147E+03

           1    1.98005E+01    -2.5413E-02  3.4388E-03  1.3302E+00  1.3304E+00
ac ID =   33377                 6.0231E-01 -2.9157E+00  3.0387E-01  2.9928E+00
                                5.0516E-02  2.6103E+01 -3.7925E+01  2.5147E+03

           1    1.99005E+01    -9.9996E-04  1.5577E-02  1.3512E+00  1.3513E+00
ac ID =   33377                 3.4801E-01 -3.0630E+00  2.4233E-01  3.0922E+00
                                5.5963E-02  2.6243E+01 -3.7847E+01  2.5147E+03

           1    2.00005E+01    -7.1339E-03  8.9571E-04  1.3210E+00  1.3210E+00
ac ID =   33377                 4.8117E-01 -3.5707E+00  1.2253E-01  3.6051E+00
                                6.1426E-02  2.6385E+01 -3.7772E+01  2.5147E+03

           1    2.01005E+01    -2.1957E-02 -1.3887E-02  1.3472E+00  1.3475E+00
ac ID =   33377                 1.2322E+00 -4.2514E+00 -4.4073E-01  4.4482E+00
                                6.6859E-02  2.6527E+01 -3.7700E+01  2.5147E+03

           1    2.02005E+01    -5.9230E-03  8.9918E-03  1.3416E+00  1.3417E+00
ac ID =   33377                 3.6714E-01 -4.1967E+00  1.7464E-02  4.2127E+00
                                7.2275E-02  2.6670E+01 -3.7631E+01  2.5147E+03

           1    2.03005E+01    -3.3460E-02  6.2673E-03  1.3064E+00  1.3069E+00
ac ID =   33377                 8.1968E-01 -5.1252E+00  3.8989E-02  5.1905E+00
                                7.7576E-02  2.6814E+01 -3.7565E+01  2.5147E+03

           1    2.04005E+01    -6.2295E-03 -8.9649E-03  1.3057E+00  1.3058E+00
ac ID =   33377                 1.0278E+00 -4.7074E+00  2.0329E-01  4.8226E+00
                                8.2966E-02  2.6958E+01 -3.7503E+01  2.5147E+03

           1    2.05004E+01    -1.8674E-02 -7.5801E-03  1.3041E+00  1.3042E+00
ac ID =   33377                 8.4878E-01 -5.3630E+00  1.0903E-01  5.4309E+00
                                8.8341E-02  2.7104E+01 -3.7443E+01  2.5147E+03

           1    2.06004E+01    -1.9378E-02  1.0035E-02  1.2544E+00  1.2545E+00
ac ID =   33377                 3.9021E-01 -5.7365E+00 -9.1629E-02  5.7505E+00
                                9.3610E-02  2.7250E+01 -3.7387E+01  2.5147E+03

           1    2.07004E+01    -1.0387E-02 -4.8657E-03  1.2556E+00  1.2556E+00
ac ID =   33377                 7.9867E-01 -5.5417E+00 -8.6319E-03  5.5990E+00
                                9.8890E-02  2.7397E+01 -3.7333E+01  2.5147E+03

           1    2.08004E+01    -1.9112E-02 -8.0579E-03  1.2444E+00  1.2446E+00
ac ID =   33377                 8.2080E-01 -6.1865E+00 -3.1154E-02  6.2408E+00
                                1.0418E-01  2.7545E+01 -3.7282E+01  2.5147E+03

           1    2.09004E+01    -1.2976E-03  1.7596E-02  1.2030E+00  1.2032E+00
ac ID =   33377                 1.4408E-01 -5.9497E+00  2.0506E-01  5.9550E+00
                                1.0940E-01  2.7694E+01 -3.7235E+01  2.5147E+03

           1    2.10004E+01    -2.2144E-03 -6.3133E-04  1.1697E+00  1.1697E+00
ac ID =   33377                 7.3862E-01 -6.2000E+00  8.8526E-02  6.2445E+00
                                1.1457E-01  2.7844E+01 -3.7190E+01  2.5147E+03

           1    2.11004E+01    -2.1867E-02 -4.7089E-03  1.1614E+00  1.1616E+00
ac ID =   33377                 8.8303E-01 -6.6617E+00  9.1174E-03  6.7199E+00
                                1.1978E-01  2.7994E+01 -3.7147E+01  2.5147E+03

           1    2.12004E+01    -1.2994E-02  1.9230E-03  1.1248E+00  1.1249E+00
ac ID =   33377                 6.7617E-01 -6.9144E+00 -8.3004E-02  6.9479E+00
                                1.2494E-01  2.8145E+01 -3.7108E+01  2.5147E+03

           1    2.13004E+01    -3.4824E-03  1.0519E-02  1.0744E+00  1.0744E+00
ac ID =   33377                 4.4129E-01 -7.0065E+00  7.1330E-03  7.0204E+00
                                1.3004E-01  2.8296E+01 -3.7071E+01  2.5147E+03

           1    2.14004E+01    -9.0656E-03 -2.9327E-03  1.0551E+00  1.0552E+00
ac ID =   33377                 6.7665E-01 -7.3312E+00  1.6070E-01  7.3641E+00
                                1.3518E-01  2.8449E+01 -3.7036E+01  2.5147E+03

           1    2.15003E+01    -3.4878E-03 -1.1918E-02  1.0269E+00  1.0270E+00
ac ID =   33377                 9.3088E-01 -7.4449E+00  1.2658E-01  7.5039E+00
                                1.4028E-01  2.8602E+01 -3.7004E+01  2.5147E+03

           1    2.16003E+01    -8.1915E-03  1.7094E-02  9.8916E-01  9.8935E-01
ac ID =   33377                 3.7684E-02 -7.6389E+00  7.7455E-02  7.6394E+00
                                1.4534E-01  2.8755E+01 -3.6975E+01  2.5147E+03

           1    2.17003E+01    -9.4264E-03  2.0893E-03  9.6705E-01  9.6710E-01
ac ID =   33377                 5.4418E-01 -8.4276E+00 -2.9281E-01  8.4503E+00
                                1.5037E-01  2.8909E+01 -3.6947E+01  2.5147E+03

           1    2.18003E+01    -5.0759E-03 -8.5804E-03  9.5220E-01  9.5225E-01
ac ID =   33377                 6.0666E-01 -8.2905E+00  8.9406E-02  8.3132E+00
                                1.5540E-01  2.9064E+01 -3.6922E+01  2.5147E+03

           1    2.19003E+01     1.0981E-02  4.4444E-03  8.9674E-01  8.9682E-01
ac ID =   33377                 4.3919E-01 -8.2109E+00  2.8834E-01  8.2277E+00
                                1.6037E-01  2.9219E+01 -3.6899E+01  2.5147E+03

           1    2.20003E+01    -5.1353E-03  1.5423E-02  8.6272E-01  8.6287E-01
ac ID =   33377                 1.2670E-01 -8.5276E+00  2.9637E-01  8.5337E+00
                                1.6533E-01  2.9375E+01 -3.6878E+01  2.5147E+03

           1    2.21003E+01     2.3592E-02  2.3350E-05  8.3926E-01  8.3960E-01
ac ID =   33377                 8.5408E-01 -8.0833E+00  5.6703E-02  8.1285E+00
                                1.7025E-01  2.9531E+01 -3.6859E+01  2.5147E+03

           1    2.22003E+01     1.9457E-02 -7.7233E-03  7.8731E-01  7.8758E-01
ac ID =   33377                 7.0794E-01 -8.1245E+00  9.7986E-02  8.1559E+00
                                1.7521E-01  2.9688E+01 -3.6842E+01  2.5147E+03

           1    2.23003E+01     2.8252E-02  2.3779E-02  7.3023E-01  7.3116E-01
ac ID =   33377                -4.3275E-02 -7.9765E+00  1.4605E-01  7.9779E+00
                                1.8008E-01  2.9845E+01 -3.6827E+01  2.5147E+03

           1    2.24003E+01     4.3009E-02  2.8008E-03  7.0629E-01  7.0760E-01
ac ID =   33377                 4.4057E-01 -7.5606E+00 -1.0903E-02  7.5734E+00
                                1.8496E-01  3.0002E+01 -3.6813E+01  2.5147E+03

           1    2.25002E+01     5.6318E-02 -8.3252E-03  6.4464E-01  6.4715E-01
ac ID =   33377                 5.5527E-01 -7.3937E+00  2.2283E-01  7.4179E+00
                                1.8985E-01  3.0160E+01 -3.6801E+01  2.5147E+03

           1    2.26002E+01     5.6454E-02  1.2801E-02  5.8734E-01  5.9019E-01
ac ID =   33377                 3.8413E-02 -7.4699E+00  7.6642E-03  7.4700E+00
                                1.9466E-01  3.0318E+01 -3.6791E+01  2.5147E+03

           1    2.27002E+01     7.3784E-02  2.0435E-02  5.5235E-01  5.5763E-01
ac ID =   33377                 6.4343E-02 -7.3662E+00  1.4318E-01  7.3678E+00
                                1.9944E-01  3.0476E+01 -3.6782E+01  2.5147E+03

           1    2.28002E+01     8.0406E-02 -3.5910E-03  4.9773E-01  5.0419E-01
ac ID =   33377                 5.4574E-01 -7.2422E+00  2.0029E-01  7.2654E+00
                                2.0423E-01  3.0634E+01 -3.6774E+01  2.5147E+03

           1    2.29002E+01     7.9223E-02 -3.4531E-03  4.2408E-01  4.3143E-01
ac ID =   33377                 2.8054E-01 -7.4500E+00  1.6264E-01  7.4570E+00
                                2.0901E-01  3.0792E+01 -3.6767E+01  2.5147E+03

           1    2.30002E+01     9.3985E-02  2.3730E-02  3.9146E-01  4.0329E-01
ac ID =   33377                -2.1856E-01 -7.2509E+00  1.3811E-01  7.2555E+00
                                2.1371E-01  3.0950E+01 -3.6762E+01  2.5147E+03

           1    2.31002E+01     1.0288E-01  8.2475E-04  3.3906E-01  3.5432E-01
ac ID =   33377                 3.4491E-01 -7.4150E+00  7.0169E-02  7.4234E+00
                                2.1841E-01  3.1108E+01 -3.6757E+01  2.5147E+03

           1    2.32002E+01     8.2438E-02 -4.5642E-04  2.6427E-01  2.7683E-01
ac ID =   33377                 2.9896E-01 -8.0622E+00 -9.5403E-02  8.0683E+00
                                2.2311E-01  3.1266E+01 -3.6753E+01  2.5147E+03

           1    2.33002E+01     1.0359E-01  1.2393E-02  2.2250E-01  2.4574E-01
ac ID =   33377                -2.3789E-01 -8.1495E+00 -3.9652E-02  8.1530E+00
                                2.2777E-01  3.1423E+01 -3.6750E+01  2.5147E+03

           1    2.34002E+01     1.0489E-01  1.0984E-02  1.8096E-01  2.0945E-01
ac ID =   33377                -2.5202E-01 -8.4849E+00  3.0861E-02  8.4886E+00
                                2.3240E-01  3.1581E+01 -3.6748E+01  2.5147E+03

           1    2.35001E+01     9.3736E-02  5.3560E-04  1.2033E-01  1.5253E-01
ac ID =   33377                -3.6368E-02 -9.0664E+00 -6.5612E-02  9.0667E+00
                                2.3700E-01  3.1739E+01 -3.6745E+01  2.5147E+03

           1    2.36001E+01     1.0388E-01  1.0080E-02  7.4953E-02  1.2849E-01
ac ID =   33377                -2.6820E-01 -9.2435E+00 -1.3386E-01  9.2484E+00
                                2.4159E-01  3.1896E+01 -3.6743E+01  2.5147E+03

           1    2.37001E+01     1.0924E-01  2.0947E-02  4.1598E-02  1.1876E-01
ac ID =   33377                -5.8777E-01 -9.6684E+00  3.1619E-03  9.6862E+00
                                2.4610E-01  3.2053E+01 -3.6742E+01  2.5147E+03

           1    2.38001E+01     1.0328E-01 -1.9179E-03 -1.7258E-02  1.0472E-01
ac ID =   33377                -7.1102E-02 -1.0099E+01 -1.7541E-01  1.0100E+01
                                2.5061E-01  3.2210E+01 -3.6740E+01  2.5147E+03

           1    2.39001E+01     1.0746E-01  8.6818E-03 -6.9849E-02  1.2846E-01
ac ID =   33377                -1.5483E-01 -1.0492E+01 -1.2552E-01  1.0494E+01
                                2.5509E-01  3.2366E+01 -3.6738E+01  2.5147E+03

           1    2.40001E+01     1.0286E-01  1.2232E-02 -9.5489E-02  1.4088E-01
ac ID =   33377                -4.1088E-01 -1.0939E+01 -1.8076E-02  1.0947E+01
                                2.5950E-01  3.2523E+01 -3.6736E+01  2.5147E+03

           1    2.41001E+01     1.1090E-01  1.8131E-02 -1.5699E-01  1.9307E-01
ac ID =   33377                -3.7896E-01 -1.1129E+01 -1.4636E-01  1.1136E+01
                                2.6389E-01  3.2679E+01 -3.6734E+01  2.5147E+03

           1    2.42001E+01     1.0863E-01 -3.8965E-03 -2.1415E-01  2.4016E-01
ac ID =   33377                -2.2027E-02 -1.1609E+01 -1.6772E-01  1.1611E+01
                                2.6829E-01  3.2834E+01 -3.6731E+01  2.5147E+03

           1    2.43001E+01     1.1003E-01  5.5845E-03 -2.5500E-01  2.7778E-01
ac ID =   33377                -4.5598E-01 -1.1897E+01 -1.2109E-01  1.1906E+01
                                2.7263E-01  3.2990E+01 -3.6728E+01  2.5147E+03

           1    2.44001E+01     1.2225E-01  2.0039E-02 -2.8584E-01  3.1154E-01
ac ID =   33377                -6.5286E-01 -1.2057E+01  2.7596E-02  1.2075E+01
                                2.7691E-01  3.3145E+01 -3.6724E+01  2.5147E+03

           1    2.45005E+01     1.3542E-01  1.0810E-02 -3.5315E-01  3.7838E-01
ac ID =   33377                -5.5900E-01 -1.2049E+01  5.4486E-02  1.2062E+01
                                2.8126E-01  3.3300E+01 -3.6720E+01  2.5147E+03

           1    2.46005E+01     1.2490E-01  3.3717E-03 -4.0171E-01  4.2069E-01
ac ID =   33377                -3.0360E-01 -1.2215E+01  5.2239E-02  1.2219E+01
                                2.8556E-01  3.3454E+01 -3.6714E+01  2.5147E+03

           1    2.47005E+01     1.3724E-01  1.0563E-02 -4.2009E-01  4.4207E-01
ac ID =   33377                -5.6842E-01 -1.2177E+01 -1.9946E-01  1.2192E+01
                                2.8980E-01  3.3608E+01 -3.6708E+01  2.5147E+03

           1    2.48005E+01     1.4632E-01  1.9053E-02 -4.6628E-01  4.8907E-01
ac ID =   33377                -6.3980E-01 -1.2008E+01 -1.5946E-01  1.2026E+01
                                2.9397E-01  3.3761E+01 -3.6700E+01  2.5147E+03

           1    2.49005E+01     1.3761E-01  2.9656E-03 -5.1804E-01  5.3602E-01
ac ID =   33377                -3.5135E-01 -1.1971E+01 -5.0377E-02  1.1976E+01
                                2.9816E-01  3.3913E+01 -3.6691E+01  2.5147E+03

