 LSTC 50th% Full_FE H-III Dummy (Beta Version, February 17, 2019)        
                    ls-dyna smp s R16 R16.0_619_d222963 date 03/18/2025

{BEGIN LEGEND}
 Entity #        Title
    22626                                                                                     
{END LEGEND}




 n o d a l   p r i n t   o u t   f o r   t i m e  s t e p       1                              ( at time 0.0000000E+00 )

 nodal point  x-disp     y-disp      z-disp      x-vel       y-vel       z-vel      x-accl      y-accl      z-accl      x-coor      y-coor      z-coor
    22626  0.00000E+00 0.00000E+00 0.00000E+00 0.00000E+00 0.00000E+00 0.00000E+00 0.00000E+00 0.00000E+00 0.00000E+00 4.65938E+00-2.81908E+01-4.49817E+01



 n o d a l   p r i n t   o u t   f o r   t i m e  s t e p       1                              ( at time 0.0000000E+00 )

 nodal point  x-rot      y-rot       z-rot       x-rot vel   y-rot vel   z-rot vel   x-rot acc   y-rot acc   z-rot acc
    22626  0.00000E+00 0.00000E+00 0.00000E+00 0.00000E+00 0.00000E+00 0.00000E+00 0.00000E+00 0.00000E+00 0.00000E+00



 n o d a l   p r i n t   o u t   f o r   t i m e  s t e p     201                              ( at time 9.9989993E-02 )

 nodal point  x-disp     y-disp      z-disp      x-vel       y-vel       z-vel      x-accl      y-accl      z-accl      x-coor      y-coor      z-coor
    22626  2.73575E-07 1.73669E-06-5.34278E-05 4.19752E-05 2.55596E-04-1.46819E-03 4.19794E-04 2.55621E-03-1.46834E-02 4.65938E+00-2.81908E+01-4.49818E+01



 n o d a l   p r i n t   o u t   f o r   t i m e  s t e p     201                              ( at time 9.9989993E-02 )

 nodal point  x-rot      y-rot       z-rot       x-rot vel   y-rot vel   z-rot vel   x-rot acc   y-rot acc   z-rot acc
    22626 -5.98981E-08-8.38466E-09-5.45921E-09-5.86955E-06-9.69950E-07-9.27110E-07-5.87014E-05-9.70047E-06-9.27203E-06



 n o d a l   p r i n t   o u t   f o r   t i m e  s t e p     401                              ( at time 1.9997999E-01 )

 nodal point  x-disp     y-disp      z-disp      x-vel       y-vel       z-vel      x-accl      y-accl      z-accl      x-coor      y-coor      z-coor
    22626  1.73152E-05 3.61741E-04-6.67587E-04 3.06936E-05 7.81102E-03-1.21531E-02-1.12826E-04 7.55618E-02-1.06859E-01 4.65939E+00-2.81905E+01-4.49824E+01



 n o d a l   p r i n t   o u t   f o r   t i m e  s t e p     401                              ( at time 1.9997999E-01 )

 nodal point  x-rot      y-rot       z-rot       x-rot vel   y-rot vel   z-rot vel   x-rot acc   y-rot acc   z-rot acc
    22626 -2.81995E-06-3.37296E-07-3.34720E-07-3.93800E-05-1.76916E-06-2.29780E-06-3.35138E-04-7.99293E-06-1.37083E-05



 n o d a l   p r i n t   o u t   f o r   t i m e  s t e p     601                              ( at time 2.9996998E-01 )

 nodal point  x-disp     y-disp      z-disp      x-vel       y-vel       z-vel      x-accl      y-accl      z-accl      x-coor      y-coor      z-coor
    22626  2.73610E-05 1.24009E-03-2.33848E-03 4.21029E-04 8.45065E-03-1.92568E-02 3.90375E-03 6.39695E-03-7.10448E-02 4.65940E+00-2.81896E+01-4.49841E+01



 n o d a l   p r i n t   o u t   f o r   t i m e  s t e p     601                              ( at time 2.9996998E-01 )

 nodal point  x-rot      y-rot       z-rot       x-rot vel   y-rot vel   z-rot vel   x-rot acc   y-rot acc   z-rot acc
    22626 -5.38480E-06-3.90483E-07-6.42195E-07-1.54132E-05-5.43041E-06-6.60904E-06 2.39691E-04-3.66161E-05-4.31167E-05



 n o d a l   p r i n t   o u t   f o r   t i m e  s t e p     801                              ( at time 3.9995997E-01 )

 nodal point  x-disp     y-disp      z-disp      x-vel       y-vel       z-vel      x-accl      y-accl      z-accl      x-coor      y-coor      z-coor
    22626  2.60422E-05 2.16241E-03-4.28288E-03-3.13911E-04 1.07389E-02-2.10871E-02-7.35013E-03 2.28851E-02-1.83046E-02 4.65940E+00-2.81887E+01-4.49860E+01



 n o d a l   p r i n t   o u t   f o r   t i m e  s t e p     801                              ( at time 3.9995997E-01 )

 nodal point  x-rot      y-rot       z-rot       x-rot vel   y-rot vel   z-rot vel   x-rot acc   y-rot acc   z-rot acc
    22626 -7.61705E-06-1.25011E-06-9.80996E-07-4.49906E-05-6.23637E-06-1.54325E-06-2.95803E-04-8.06040E-06 5.06629E-05



 n o d a l   p r i n t   o u t   f o r   t i m e  s t e p    1001                              ( at time 4.9994997E-01 )

 nodal point  x-disp     y-disp      z-disp      x-vel       y-vel       z-vel      x-accl      y-accl      z-accl      x-coor      y-coor      z-coor
    22626  3.69474E-06 3.43652E-03-6.74480E-03-2.41908E-04 1.41485E-02-2.87099E-02 7.20099E-04 3.40995E-02-7.62353E-02 4.65938E+00-2.81874E+01-4.49885E+01



 n o d a l   p r i n t   o u t   f o r   t i m e  s t e p    1001                              ( at time 4.9994997E-01 )

 nodal point  x-rot      y-rot       z-rot       x-rot vel   y-rot vel   z-rot vel   x-rot acc   y-rot acc   z-rot acc
    22626 -1.35614E-05-1.16561E-06-9.49628E-07-8.41771E-05 3.20114E-06 4.08182E-06-3.91904E-04 9.43845E-05 5.62564E-05



 n o d a l   p r i n t   o u t   f o r   t i m e  s t e p    1201                              ( at time 5.9993996E-01 )

 nodal point  x-disp     y-disp      z-disp      x-vel       y-vel       z-vel      x-accl      y-accl      z-accl      x-coor      y-coor      z-coor
    22626 -9.07496E-07 5.01225E-03-9.71614E-03 4.76128E-05 1.67043E-02-3.09919E-02 2.89550E-03 2.55599E-02-2.28232E-02 4.65937E+00-2.81858E+01-4.49914E+01



 n o d a l   p r i n t   o u t   f o r   t i m e  s t e p    1201                              ( at time 5.9993996E-01 )

 nodal point  x-rot      y-rot       z-rot       x-rot vel   y-rot vel   z-rot vel   x-rot acc   y-rot acc   z-rot acc
    22626 -2.02871E-05-8.86753E-07-9.57527E-07-5.89270E-05 3.85088E-06-2.03784E-06 2.52526E-04 6.49810E-06-6.12027E-05



 n o d a l   p r i n t   o u t   f o r   t i m e  s t e p    1401                              ( at time 6.9992995E-01 )

 nodal point  x-disp     y-disp      z-disp      x-vel       y-vel       z-vel      x-accl      y-accl      z-accl      x-coor      y-coor      z-coor
    22626 -5.09885E-05 6.85043E-03-1.31710E-02-4.90165E-04 1.96571E-02-3.89662E-02-5.37832E-03 2.95317E-02-7.97508E-02 4.65932E+00-2.81840E+01-4.49949E+01



 n o d a l   p r i n t   o u t   f o r   t i m e  s t e p    1401                              ( at time 6.9992995E-01 )

 nodal point  x-rot      y-rot       z-rot       x-rot vel   y-rot vel   z-rot vel   x-rot acc   y-rot acc   z-rot acc
    22626 -2.62082E-05-9.00635E-07-6.32485E-07-7.10314E-05 3.12662E-07 3.79973E-06-1.21056E-04-3.53857E-05 5.83815E-05



 n o d a l   p r i n t   o u t   f o r   t i m e  s t e p    1601                              ( at time 7.9991994E-01 )

 nodal point  x-disp     y-disp      z-disp      x-vel       y-vel       z-vel      x-accl      y-accl      z-accl      x-coor      y-coor      z-coor
    22626 -8.02899E-05 8.98674E-03-1.74643E-02-4.98797E-04 2.21633E-02-4.51189E-02-8.63201E-05 2.50639E-02-6.15330E-02 4.65929E+00-2.81818E+01-4.49992E+01



 n o d a l   p r i n t   o u t   f o r   t i m e  s t e p    1601                              ( at time 7.9991994E-01 )

 nodal point  x-rot      y-rot       z-rot       x-rot vel   y-rot vel   z-rot vel   x-rot acc   y-rot acc   z-rot acc
    22626 -3.44001E-05-8.78355E-07-5.15456E-07-9.19362E-05-4.83540E-06 1.61234E-06-2.09069E-04-5.14858E-05-2.18761E-05



 n o d a l   p r i n t   o u t   f o r   t i m e  s t e p    1801                              ( at time 8.9990994E-01 )

 nodal point  x-disp     y-disp      z-disp      x-vel       y-vel       z-vel      x-accl      y-accl      z-accl      x-coor      y-coor      z-coor
    22626 -1.16861E-04 1.12542E-02-2.19905E-02-2.90111E-04 2.40448E-02-4.55864E-02 2.08707E-03 1.88169E-02-4.67526E-03 4.65926E+00-2.81796E+01-4.50037E+01



 n o d a l   p r i n t   o u t   f o r   t i m e  s t e p    1801                              ( at time 8.9990994E-01 )

 nodal point  x-rot      y-rot       z-rot       x-rot vel   y-rot vel   z-rot vel   x-rot acc   y-rot acc   z-rot acc
    22626 -4.28173E-05-9.58763E-07-5.02289E-07-8.24703E-05 2.01723E-06-7.50446E-07 9.46681E-05 6.85332E-05-2.36302E-05



 n o d a l   p r i n t   o u t   f o r   t i m e  s t e p    2001                              ( at time 9.9989993E-01 )

 nodal point  x-disp     y-disp      z-disp      x-vel       y-vel       z-vel      x-accl      y-accl      z-accl      x-coor      y-coor      z-coor
    22626 -1.52034E-04 1.37913E-02-2.67304E-02-3.52039E-05 2.65020E-02-5.00328E-02 2.54932E-03 2.45748E-02-4.44688E-02 4.65922E+00-2.81770E+01-4.50084E+01



 n o d a l   p r i n t   o u t   f o r   t i m e  s t e p    2001                              ( at time 9.9989993E-01 )

 nodal point  x-rot      y-rot       z-rot       x-rot vel   y-rot vel   z-rot vel   x-rot acc   y-rot acc   z-rot acc
    22626 -5.18483E-05-9.08360E-07-4.38689E-07-1.06211E-04 1.21492E-06-3.07534E-06-2.37426E-04-8.02388E-06-2.32512E-05



 n o d a l   p r i n t   o u t   f o r   t i m e  s t e p    2201                              ( at time 1.0998899E+00 )

 nodal point  x-disp     y-disp      z-disp      x-vel       y-vel       z-vel      x-accl      y-accl      z-accl      x-coor      y-coor      z-coor
    22626 -1.59799E-04 1.65321E-02-3.20559E-02-3.42090E-04 2.88811E-02-5.60779E-02-3.06917E-03 2.37932E-02-6.04572E-02 4.65921E+00-2.81743E+01-4.50138E+01



 n o d a l   p r i n t   o u t   f o r   t i m e  s t e p    2201                              ( at time 1.0998899E+00 )

 nodal point  x-rot      y-rot       z-rot       x-rot vel   y-rot vel   z-rot vel   x-rot acc   y-rot acc   z-rot acc
    22626 -6.29466E-05-1.00477E-06-7.49790E-07-1.03717E-04-7.61684E-06-2.07971E-06 2.49367E-05-8.83265E-05 9.95729E-06



 n o d a l   p r i n t   o u t   f o r   t i m e  s t e p    2401                              ( at time 1.1998799E+00 )

 nodal point  x-disp     y-disp      z-disp      x-vel       y-vel       z-vel      x-accl      y-accl      z-accl      x-coor      y-coor      z-coor
    22626 -1.89759E-04 1.94752E-02-3.79327E-02-1.97104E-04 3.02261E-02-6.12081E-02 1.45000E-03 1.34512E-02-5.13069E-02 4.65919E+00-2.81714E+01-4.50197E+01



 n o d a l   p r i n t   o u t   f o r   t i m e  s t e p    2401                              ( at time 1.1998799E+00 )

 nodal point  x-rot      y-rot       z-rot       x-rot vel   y-rot vel   z-rot vel   x-rot acc   y-rot acc   z-rot acc
    22626 -7.29507E-05-1.61517E-06-9.91139E-07-1.01195E-04-7.20858E-06-3.02579E-06 2.52198E-05 4.08292E-06-9.46176E-06



 n o d a l   p r i n t   o u t   f o r   t i m e  s t e p    2601                              ( at time 1.2998699E+00 )

 nodal point  x-disp     y-disp      z-disp      x-vel       y-vel       z-vel      x-accl      y-accl      z-accl      x-coor      y-coor      z-coor
    22626 -2.23881E-04 2.26249E-02-4.42079E-02-2.45646E-04 3.25990E-02-6.40536E-02-4.85469E-04 2.37315E-02-2.84577E-02 4.65915E+00-2.81682E+01-4.50259E+01



 n o d a l   p r i n t   o u t   f o r   t i m e  s t e p    2601                              ( at time 1.2998699E+00 )

 nodal point  x-rot      y-rot       z-rot       x-rot vel   y-rot vel   z-rot vel   x-rot acc   y-rot acc   z-rot acc
    22626 -8.39942E-05-2.17120E-06-1.24638E-06-1.29372E-04 3.82755E-08-1.45195E-06-2.81795E-04 7.24758E-05 1.57399E-05



 n o d a l   p r i n t   o u t   f o r   t i m e  s t e p    2801                              ( at time 1.3998599E+00 )

 nodal point  x-disp     y-disp      z-disp      x-vel       y-vel       z-vel      x-accl      y-accl      z-accl      x-coor      y-coor      z-coor
    22626 -2.51448E-04 2.59924E-02-5.07122E-02-4.49908E-04 3.45136E-02-6.66759E-02-2.04282E-03 1.91479E-02-2.62252E-02 4.65912E+00-2.81648E+01-4.50324E+01



 n o d a l   p r i n t   o u t   f o r   t i m e  s t e p    2801                              ( at time 1.3998599E+00 )

 nodal point  x-rot      y-rot       z-rot       x-rot vel   y-rot vel   z-rot vel   x-rot acc   y-rot acc   z-rot acc
    22626 -9.73991E-05-2.01180E-06-1.34517E-06-1.37048E-04-1.72476E-07 1.76326E-06-7.67619E-05-2.10773E-06 3.21553E-05



 n o d a l   p r i n t   o u t   f o r   t i m e  s t e p    3001                              ( at time 1.4998499E+00 )

 nodal point  x-disp     y-disp      z-disp      x-vel       y-vel       z-vel      x-accl      y-accl      z-accl      x-coor      y-coor      z-coor
    22626 -2.96343E-04 2.95912E-02-5.77243E-02-4.47716E-04 3.72794E-02-7.39897E-02 2.19206E-05 2.76606E-02-7.31456E-02 4.65908E+00-2.81612E+01-4.50394E+01



 n o d a l   p r i n t   o u t   f o r   t i m e  s t e p    3001                              ( at time 1.4998499E+00 )

 nodal point  x-rot      y-rot       z-rot       x-rot vel   y-rot vel   z-rot vel   x-rot acc   y-rot acc   z-rot acc
    22626 -1.10706E-04-2.03136E-06-1.27103E-06-1.28600E-04-1.04557E-06-1.71458E-06 8.44877E-05-8.73179E-06-3.47819E-05



 n o d a l   p r i n t   o u t   f o r   t i m e  s t e p    3201                              ( at time 1.5998399E+00 )

 nodal point  x-disp     y-disp      z-disp      x-vel       y-vel       z-vel      x-accl      y-accl      z-accl      x-coor      y-coor      z-coor
    22626 -3.60046E-04 3.34892E-02-6.54466E-02-5.84568E-04 4.05425E-02-7.97021E-02-1.36866E-03 3.26348E-02-5.71294E-02 4.65902E+00-2.81573E+01-4.50472E+01



 n o d a l   p r i n t   o u t   f o r   t i m e  s t e p    3201                              ( at time 1.5998399E+00 )

 nodal point  x-rot      y-rot       z-rot       x-rot vel   y-rot vel   z-rot vel   x-rot acc   y-rot acc   z-rot acc
    22626 -1.23310E-04-2.14840E-06-1.09874E-06-1.34684E-04-2.95611E-06 3.09235E-06-6.08513E-05-1.91073E-05 4.80741E-05



 n o d a l   p r i n t   o u t   f o r   t i m e  s t e p    3401                              ( at time 1.6998299E+00 )

 nodal point  x-disp     y-disp      z-disp      x-vel       y-vel       z-vel      x-accl      y-accl      z-accl      x-coor      y-coor      z-coor
    22626 -4.21720E-04 3.76418E-02-7.35826E-02-7.28434E-04 4.22410E-02-8.25940E-02-1.43880E-03 1.69863E-02-2.89225E-02 4.65895E+00-2.81532E+01-4.50553E+01



 n o d a l   p r i n t   o u t   f o r   t i m e  s t e p    3401                              ( at time 1.6998299E+00 )

 nodal point  x-rot      y-rot       z-rot       x-rot vel   y-rot vel   z-rot vel   x-rot acc   y-rot acc   z-rot acc
    22626 -1.37608E-04-2.15239E-06-9.09253E-07-1.47775E-04 1.61709E-06 3.92172E-06-1.30920E-04 4.57365E-05 8.29452E-06



 n o d a l   p r i n t   o u t   f o r   t i m e  s t e p    3601                              ( at time 1.7998199E+00 )

 nodal point  x-disp     y-disp      z-disp      x-vel       y-vel       z-vel      x-accl      y-accl      z-accl      x-coor      y-coor      z-coor
    22626 -4.84872E-04 4.19004E-02-8.19601E-02-5.10454E-04 4.32799E-02-8.48731E-02 2.18002E-03 1.03905E-02-2.27932E-02 4.65889E+00-2.81489E+01-4.50637E+01



 n o d a l   p r i n t   o u t   f o r   t i m e  s t e p    3601                              ( at time 1.7998199E+00 )

 nodal point  x-rot      y-rot       z-rot       x-rot vel   y-rot vel   z-rot vel   x-rot acc   y-rot acc   z-rot acc
    22626 -1.52819E-04-2.06308E-06-7.76712E-07-1.49684E-04 1.51164E-06-1.39606E-06-1.90952E-05-1.05458E-06-5.31832E-05



 n o d a l   p r i n t   o u t   f o r   t i m e  s t e p    3801                              ( at time 1.8998099E+00 )

 nodal point  x-disp     y-disp      z-disp      x-vel       y-vel       z-vel      x-accl      y-accl      z-accl      x-coor      y-coor      z-coor
    22626 -5.44083E-04 4.63777E-02-9.06362E-02-5.21442E-04 4.60786E-02-8.88709E-02-1.09893E-04 2.79891E-02-3.99819E-02 4.65883E+00-2.81445E+01-4.50724E+01



 n o d a l   p r i n t   o u t   f o r   t i m e  s t e p    3801                              ( at time 1.8998099E+00 )

 nodal point  x-rot      y-rot       z-rot       x-rot vel   y-rot vel   z-rot vel   x-rot acc   y-rot acc   z-rot acc
    22626 -1.67671E-04-1.85323E-06-6.47906E-07-1.49822E-04-1.62919E-06-5.24874E-07-1.37748E-06-3.14114E-05 8.71273E-06



 n o d a l   p r i n t   o u t   f o r   t i m e  s t e p    4001                              ( at time 1.9997999E+00 )

 nodal point  x-disp     y-disp      z-disp      x-vel       y-vel       z-vel      x-accl      y-accl      z-accl      x-coor      y-coor      z-coor
    22626 -5.94957E-04 5.10275E-02-9.97458E-02-5.44171E-04 4.71707E-02-9.31153E-02-2.27306E-04 1.09223E-02-4.24479E-02 4.65878E+00-2.81398E+01-4.50815E+01



 n o d a l   p r i n t   o u t   f o r   t i m e  s t e p    4001                              ( at time 1.9997999E+00 )

 nodal point  x-rot      y-rot       z-rot       x-rot vel   y-rot vel   z-rot vel   x-rot acc   y-rot acc   z-rot acc
    22626 -1.82762E-04-2.08909E-06-6.97584E-07-1.56034E-04-4.61820E-06-2.89229E-07-6.21237E-05-2.98931E-05 2.35669E-06



 n o d a l   p r i n t   o u t   f o r   t i m e  s t e p    4201                              ( at time 2.0997899E+00 )

 nodal point  x-disp     y-disp      z-disp      x-vel       y-vel       z-vel      x-accl      y-accl      z-accl      x-coor      y-coor      z-coor
    22626 -6.49052E-04 5.57840E-02-1.09163E-01-5.59891E-04 4.81948E-02-9.53021E-02-1.57222E-04 1.02426E-02-2.18707E-02 4.65873E+00-2.81350E+01-4.50909E+01



 n o d a l   p r i n t   o u t   f o r   t i m e  s t e p    4201                              ( at time 2.0997899E+00 )

 nodal point  x-rot      y-rot       z-rot       x-rot vel   y-rot vel   z-rot vel   x-rot acc   y-rot acc   z-rot acc
    22626 -1.97940E-04-2.47786E-06-8.61349E-07-1.50091E-04-1.48799E-06 2.12880E-06 5.94331E-05 3.13052E-05 2.41827E-05



 n o d a l   p r i n t   o u t   f o r   t i m e  s t e p    4401                              ( at time 2.1997798E+00 )

 nodal point  x-disp     y-disp      z-disp      x-vel       y-vel       z-vel      x-accl      y-accl      z-accl      x-coor      y-coor      z-coor
    22626 -7.07771E-04 6.06677E-02-1.18762E-01-4.97997E-04 4.91608E-02-9.67364E-02 6.19009E-04 9.66065E-03-1.43438E-02 4.65867E+00-2.81302E+01-4.51005E+01



 n o d a l   p r i n t   o u t   f o r   t i m e  s t e p    4401                              ( at time 2.1997798E+00 )

 nodal point  x-rot      y-rot       z-rot       x-rot vel   y-rot vel   z-rot vel   x-rot acc   y-rot acc   z-rot acc
    22626 -2.13313E-04-2.58450E-06-8.57647E-07-1.59260E-04-1.57557E-06-1.04947E-06-9.17050E-05-8.75883E-07-3.17859E-05



 n o d a l   p r i n t   o u t   f o r   t i m e  s t e p    4601                              ( at time 2.2997698E+00 )

 nodal point  x-disp     y-disp      z-disp      x-vel       y-vel       z-vel      x-accl      y-accl      z-accl      x-coor      y-coor      z-coor
    22626 -7.62868E-04 6.56148E-02-1.28511E-01-6.43462E-04 5.01840E-02-9.87431E-02-1.45480E-03 1.02325E-02-2.00693E-02 4.65861E+00-2.81252E+01-4.51102E+01



 n o d a l   p r i n t   o u t   f o r   t i m e  s t e p    4601                              ( at time 2.2997698E+00 )

 nodal point  x-rot      y-rot       z-rot       x-rot vel   y-rot vel   z-rot vel   x-rot acc   y-rot acc   z-rot acc
    22626 -2.29829E-04-2.51738E-06-8.65708E-07-1.61349E-04 8.79753E-07-1.02671E-06-2.08916E-05 2.45556E-05 2.27620E-07



 n o d a l   p r i n t   o u t   f o r   t i m e  s t e p    4801                              ( at time 2.3997598E+00 )

 nodal point  x-disp     y-disp      z-disp      x-vel       y-vel       z-vel      x-accl      y-accl      z-accl      x-coor      y-coor      z-coor
    22626 -8.37366E-04 7.07397E-02-1.38610E-01-7.64570E-04 5.20301E-02-1.03270E-01-1.21120E-03 1.84633E-02-4.52724E-02 4.65854E+00-2.81201E+01-4.51203E+01



 n o d a l   p r i n t   o u t   f o r   t i m e  s t e p    4801                              ( at time 2.3997598E+00 )

 nodal point  x-rot      y-rot       z-rot       x-rot vel   y-rot vel   z-rot vel   x-rot acc   y-rot acc   z-rot acc
    22626 -2.45578E-04-2.50828E-06-5.93384E-07-1.55367E-04-3.16146E-08 4.21302E-06 5.98271E-05-9.11460E-06 5.24026E-05



 n o d a l   p r i n t   o u t   f o r   t i m e  s t e p    5001                              ( at time 2.4997498E+00 )

 nodal point  x-disp     y-disp      z-disp      x-vel       y-vel       z-vel      x-accl      y-accl      z-accl      x-coor      y-coor      z-coor
    22626 -9.18490E-04 7.60409E-02-1.49108E-01-9.25618E-04 5.34353E-02-1.05958E-01-1.61063E-03 1.40532E-02-2.68848E-02 4.65846E+00-2.81148E+01-4.51308E+01



 n o d a l   p r i n t   o u t   f o r   t i m e  s t e p    5001                              ( at time 2.4997498E+00 )

 nodal point  x-rot      y-rot       z-rot       x-rot vel   y-rot vel   z-rot vel   x-rot acc   y-rot acc   z-rot acc
    22626 -2.61147E-04-2.38642E-06-3.31819E-07-1.54622E-04 1.79494E-06 4.42426E-06 7.45030E-06 1.82673E-05 2.11269E-06



 n o d a l   p r i n t   o u t   f o r   t i m e  s t e p    5201                              ( at time 2.5997398E+00 )

 nodal point  x-disp     y-disp      z-disp      x-vel       y-vel       z-vel      x-accl      y-accl      z-accl      x-coor      y-coor      z-coor
    22626 -1.00923E-03 8.13931E-02-1.59711E-01-9.91541E-04 5.34950E-02-1.06027E-01-6.59298E-04 5.97671E-04-6.89099E-04 4.65837E+00-2.81094E+01-4.51414E+01



 n o d a l   p r i n t   o u t   f o r   t i m e  s t e p    5201                              ( at time 2.5997398E+00 )

 nodal point  x-rot      y-rot       z-rot       x-rot vel   y-rot vel   z-rot vel   x-rot acc   y-rot acc   z-rot acc
    22626 -2.76653E-04-2.05819E-06 6.23513E-08-1.51506E-04 5.10255E-06 5.03327E-06 3.11697E-05 3.30795E-05 6.09070E-06



 n o d a l   p r i n t   o u t   f o r   t i m e  s t e p    5401                              ( at time 2.6997298E+00 )

 nodal point  x-disp     y-disp      z-disp      x-vel       y-vel       z-vel      x-accl      y-accl      z-accl      x-coor      y-coor      z-coor
    22626 -1.10742E-03 8.67293E-02-1.70316E-01-8.15114E-04 5.35636E-02-1.06230E-01 1.76444E-03 6.86005E-04-2.02653E-03 4.65827E+00-2.81041E+01-4.51520E+01



 n o d a l   p r i n t   o u t   f o r   t i m e  s t e p    5401                              ( at time 2.6997298E+00 )

 nodal point  x-rot      y-rot       z-rot       x-rot vel   y-rot vel   z-rot vel   x-rot acc   y-rot acc   z-rot acc
    22626 -2.92362E-04-1.61807E-06 5.88171E-07-1.63111E-04 5.46646E-06 3.50366E-06-1.16063E-04 3.63938E-06-1.52976E-05



 n o d a l   p r i n t   o u t   f o r   t i m e  s t e p    5601                              ( at time 2.7997198E+00 )

 nodal point  x-disp     y-disp      z-disp      x-vel       y-vel       z-vel      x-accl      y-accl      z-accl      x-coor      y-coor      z-coor
    22626 -1.19434E-03 9.21225E-02-1.80984E-01-8.83268E-04 5.42789E-02-1.07486E-01-6.81613E-04 7.15380E-03-1.25637E-02 4.65818E+00-2.80987E+01-4.51627E+01



 n o d a l   p r i n t   o u t   f o r   t i m e  s t e p    5601                              ( at time 2.7997198E+00 )

 nodal point  x-rot      y-rot       z-rot       x-rot vel   y-rot vel   z-rot vel   x-rot acc   y-rot acc   z-rot acc
    22626 -3.07848E-04-1.10542E-06 1.00441E-06-1.44737E-04 3.12673E-06 4.36413E-06 1.83754E-04-2.33997E-05 8.60552E-06



 n o d a l   p r i n t   o u t   f o r   t i m e  s t e p    5801                              ( at time 2.8997098E+00 )

 nodal point  x-disp     y-disp      z-disp      x-vel       y-vel       z-vel      x-accl      y-accl      z-accl      x-coor      y-coor      z-coor
    22626 -1.27549E-03 9.75434E-02-1.91834E-01-7.38868E-04 5.41959E-02-1.09469E-01 1.44415E-03-8.31010E-04-1.98357E-02 4.65810E+00-2.80933E+01-4.51736E+01



 n o d a l   p r i n t   o u t   f o r   t i m e  s t e p    5801                              ( at time 2.8997098E+00 )

 nodal point  x-rot      y-rot       z-rot       x-rot vel   y-rot vel   z-rot vel   x-rot acc   y-rot acc   z-rot acc
    22626 -3.21797E-04-9.10285E-07 1.30437E-06-1.39918E-04 5.37512E-07 3.58322E-06 4.82017E-05-2.58948E-05-7.80986E-06



 n o d a l   p r i n t   o u t   f o r   t i m e  s t e p    6001                              ( at time 2.9996998E+00 )

 nodal point  x-disp     y-disp      z-disp      x-vel       y-vel       z-vel      x-accl      y-accl      z-accl      x-coor      y-coor      z-coor
    22626 -1.35905E-03 1.02934E-01-2.02797E-01-7.26430E-04 5.35788E-02-1.09338E-01 1.24389E-04-6.17137E-03 1.30890E-03 4.65802E+00-2.80879E+01-4.51845E+01



 n o d a l   p r i n t   o u t   f o r   t i m e  s t e p    6001                              ( at time 2.9996998E+00 )

 nodal point  x-rot      y-rot       z-rot       x-rot vel   y-rot vel   z-rot vel   x-rot acc   y-rot acc   z-rot acc
    22626 -3.36568E-04-8.70984E-07 1.48814E-06-1.50234E-04 4.85049E-07 2.49518E-06-1.03173E-04-5.24683E-07-1.08815E-05



 n o d a l   p r i n t   o u t   f o r   t i m e  s t e p    6201                              ( at time 3.0996898E+00 )

 nodal point  x-disp     y-disp      z-disp      x-vel       y-vel       z-vel      x-accl      y-accl      z-accl      x-coor      y-coor      z-coor
    22626 -1.42781E-03 1.08283E-01-2.13685E-01-7.44688E-04 5.35959E-02-1.08923E-01-1.82603E-04 1.71604E-04 4.15769E-03 4.65795E+00-2.80825E+01-4.51954E+01



 n o d a l   p r i n t   o u t   f o r   t i m e  s t e p    6201                              ( at time 3.0996898E+00 )

 nodal point  x-rot      y-rot       z-rot       x-rot vel   y-rot vel   z-rot vel   x-rot acc   y-rot acc   z-rot acc
    22626 -3.51603E-04-7.96460E-07 1.74808E-06-1.49329E-04 6.54969E-08 4.46545E-06 9.04973E-06-4.19594E-06 1.97047E-05



 n o d a l   p r i n t   o u t   f o r   t i m e  s t e p    6401                              ( at time 3.1996798E+00 )

 nodal point  x-disp     y-disp      z-disp      x-vel       y-vel       z-vel      x-accl      y-accl      z-accl      x-coor      y-coor      z-coor
    22626 -1.49342E-03 1.13662E-01-2.24667E-01-6.48349E-04 5.39983E-02-1.10858E-01 9.63490E-04 4.02446E-03-1.93569E-02 4.65788E+00-2.80772E+01-4.52064E+01



 n o d a l   p r i n t   o u t   f o r   t i m e  s t e p    6401                              ( at time 3.1996798E+00 )

 nodal point  x-rot      y-rot       z-rot       x-rot vel   y-rot vel   z-rot vel   x-rot acc   y-rot acc   z-rot acc
    22626 -3.66441E-04-6.70836E-07 1.89604E-06-1.42016E-04 1.41388E-06 1.11932E-06 7.31338E-05 1.34852E-05-3.34646E-05



 n o d a l   p r i n t   o u t   f o r   t i m e  s t e p    6601                              ( at time 3.2996698E+00 )

 nodal point  x-disp     y-disp      z-disp      x-vel       y-vel       z-vel      x-accl      y-accl      z-accl      x-coor      y-coor      z-coor
    22626 -1.57156E-03 1.19083E-01-2.35858E-01-8.23632E-04 5.43036E-02-1.12743E-01-1.75301E-03 3.05322E-03-1.88484E-02 4.65780E+00-2.80717E+01-4.52176E+01



 n o d a l   p r i n t   o u t   f o r   t i m e  s t e p    6601                              ( at time 3.2996698E+00 )

 nodal point  x-rot      y-rot       z-rot       x-rot vel   y-rot vel   z-rot vel   x-rot acc   y-rot acc   z-rot acc
    22626 -3.80579E-04-4.99213E-07 2.15531E-06-1.37974E-04 2.45552E-06 2.77955E-06 4.04276E-05 1.04175E-05 1.66040E-05



 n o d a l   p r i n t   o u t   f o r   t i m e  s t e p    6801                              ( at time 3.3996598E+00 )

 nodal point  x-disp     y-disp      z-disp      x-vel       y-vel       z-vel      x-accl      y-accl      z-accl      x-coor      y-coor      z-coor
    22626 -1.65891E-03 1.24512E-01-2.47152E-01-9.64444E-04 5.40589E-02-1.13029E-01-1.40826E-03-2.44746E-03-2.86063E-03 4.65772E+00-2.80663E+01-4.52289E+01



 n o d a l   p r i n t   o u t   f o r   t i m e  s t e p    6801                              ( at time 3.3996598E+00 )

 nodal point  x-rot      y-rot       z-rot       x-rot vel   y-rot vel   z-rot vel   x-rot acc   y-rot acc   z-rot acc
    22626 -3.94299E-04-3.51114E-07 2.50641E-06-1.36833E-04 3.57957E-06 6.20926E-06 1.14138E-05 1.12416E-05 3.43005E-05



 n o d a l   p r i n t   o u t   f o r   t i m e  s t e p    7001                              ( at time 3.4996498E+00 )

 nodal point  x-disp     y-disp      z-disp      x-vel       y-vel       z-vel      x-accl      y-accl      z-accl      x-coor      y-coor      z-coor
    22626 -1.75216E-03 1.29865E-01-2.58390E-01-9.61507E-04 5.30969E-02-1.11678E-01 2.93763E-05-9.62124E-03 1.35139E-02 4.65762E+00-2.80610E+01-4.52401E+01



 n o d a l   p r i n t   o u t   f o r   t i m e  s t e p    7001                              ( at time 3.4996498E+00 )

 nodal point  x-rot      y-rot       z-rot       x-rot vel   y-rot vel   z-rot vel   x-rot acc   y-rot acc   z-rot acc
    22626 -4.08216E-04-1.14201E-08 2.95866E-06-1.37223E-04 4.62365E-06 4.24800E-06-3.89798E-06 1.04418E-05-1.96146E-05



 n o d a l   p r i n t   o u t   f o r   t i m e  s t e p    7201                              ( at time 3.5996397E+00 )

 nodal point  x-disp     y-disp      z-disp      x-vel       y-vel       z-vel      x-accl      y-accl      z-accl      x-coor      y-coor      z-coor
    22626 -1.84436E-03 1.35131E-01-2.69485E-01-8.08550E-04 5.20806E-02-1.10689E-01 1.52973E-03-1.01637E-02 9.88256E-03 4.65753E+00-2.80557E+01-4.52512E+01



 n o d a l   p r i n t   o u t   f o r   t i m e  s t e p    7201                              ( at time 3.5996397E+00 )

 nodal point  x-rot      y-rot       z-rot       x-rot vel   y-rot vel   z-rot vel   x-rot acc   y-rot acc   z-rot acc
    22626 -4.21603E-04 6.23177E-07 3.51503E-06-1.34692E-04 6.09095E-06 3.40495E-06 2.53092E-05 1.46745E-05-8.43137E-06



 n o d a l   p r i n t   o u t   f o r   t i m e  s t e p    7401                              ( at time 3.6996297E+00 )

 nodal point  x-disp     y-disp      z-disp      x-vel       y-vel       z-vel      x-accl      y-accl      z-accl      x-coor      y-coor      z-coor
    22626 -1.92889E-03 1.40293E-01-2.80552E-01-8.05392E-04 5.11653E-02-1.10734E-01 3.15843E-05-9.15372E-03-4.47601E-04 4.65745E+00-2.80505E+01-4.52623E+01



 n o d a l   p r i n t   o u t   f o r   t i m e  s t e p    7401                              ( at time 3.6996297E+00 )

 nodal point  x-rot      y-rot       z-rot       x-rot vel   y-rot vel   z-rot vel   x-rot acc   y-rot acc   z-rot acc
    22626 -4.34679E-04 1.11195E-06 3.93131E-06-1.26842E-04 2.86792E-06 3.66221E-06 7.85118E-05-3.22335E-05 2.57283E-06



 n o d a l   p r i n t   o u t   f o r   t i m e  s t e p    7601                              ( at time 3.7996197E+00 )

 nodal point  x-disp     y-disp      z-disp      x-vel       y-vel       z-vel      x-accl      y-accl      z-accl      x-coor      y-coor      z-coor
    22626 -2.00881E-03 1.45342E-01-2.91592E-01-7.73881E-04 4.97925E-02-1.09917E-01 3.15134E-04-1.37293E-02 8.17121E-03 4.65737E+00-2.80455E+01-4.52733E+01



 n o d a l   p r i n t   o u t   f o r   t i m e  s t e p    7601                              ( at time 3.7996197E+00 )

 nodal point  x-rot      y-rot       z-rot       x-rot vel   y-rot vel   z-rot vel   x-rot acc   y-rot acc   z-rot acc
    22626 -4.46904E-04 1.23515E-06 4.25268E-06-1.23878E-04 4.30833E-08 2.01436E-06 2.96351E-05-2.82512E-05-1.64802E-05



 n o d a l   p r i n t   o u t   f o r   t i m e  s t e p    7801                              ( at time 3.8996097E+00 )

 nodal point  x-disp     y-disp      z-disp      x-vel       y-vel       z-vel      x-accl      y-accl      z-accl      x-coor      y-coor      z-coor
    22626 -2.07455E-03 1.50238E-01-3.02494E-01-5.78798E-04 4.80360E-02-1.07948E-01 1.95103E-03-1.75674E-02 1.96949E-02 4.65730E+00-2.80406E+01-4.52842E+01



 n o d a l   p r i n t   o u t   f o r   t i m e  s t e p    7801                              ( at time 3.8996097E+00 )

 nodal point  x-rot      y-rot       z-rot       x-rot vel   y-rot vel   z-rot vel   x-rot acc   y-rot acc   z-rot acc
    22626 -4.59297E-04 1.23685E-06 4.44601E-06-1.29462E-04 1.16834E-06 1.72880E-06-5.58408E-05 1.12537E-05-2.85589E-06



 n o d a l   p r i n t   o u t   f o r   t i m e  s t e p    8001                              ( at time 3.9995997E+00 )

 nodal point  x-disp     y-disp      z-disp      x-vel       y-vel       z-vel      x-accl      y-accl      z-accl      x-coor      y-coor      z-coor
    22626 -2.12312E-03 1.54951E-01-3.13152E-01-4.54698E-04 4.64772E-02-1.05367E-01 1.24112E-03-1.55897E-02 2.58122E-02 4.65725E+00-2.80359E+01-4.52949E+01



 n o d a l   p r i n t   o u t   f o r   t i m e  s t e p    8001                              ( at time 3.9995997E+00 )

 nodal point  x-rot      y-rot       z-rot       x-rot vel   y-rot vel   z-rot vel   x-rot acc   y-rot acc   z-rot acc
    22626 -4.71917E-04 1.22686E-06 4.48473E-06-1.20542E-04-2.60197E-07 1.52379E-06 8.92075E-05-1.42868E-05-2.05034E-06



 n o d a l   p r i n t   o u t   f o r   t i m e  s t e p    8201                              ( at time 4.0995897E+00 )

 nodal point  x-disp     y-disp      z-disp      x-vel       y-vel       z-vel      x-accl      y-accl      z-accl      x-coor      y-coor      z-coor
    22626 -2.17104E-03 1.59524E-01-3.23633E-01-4.20880E-04 4.50144E-02-1.04444E-01 3.38216E-04-1.46295E-02 9.22540E-03 4.65720E+00-2.80313E+01-4.53054E+01



 n o d a l   p r i n t   o u t   f o r   t i m e  s t e p    8201                              ( at time 4.0995897E+00 )

 nodal point  x-rot      y-rot       z-rot       x-rot vel   y-rot vel   z-rot vel   x-rot acc   y-rot acc   z-rot acc
    22626 -4.83062E-04 1.17542E-06 4.57435E-06-1.07686E-04-6.29518E-07 1.76166E-06 1.28575E-04-3.69358E-06 2.37901E-06



 n o d a l   p r i n t   o u t   f o r   t i m e  s t e p    8401                              ( at time 4.1995797E+00 )

 nodal point  x-disp     y-disp      z-disp      x-vel       y-vel       z-vel      x-accl      y-accl      z-accl      x-coor      y-coor      z-coor
    22626 -2.21938E-03 1.63976E-01-3.34017E-01-5.89315E-04 4.39792E-02-1.03055E-01-1.68452E-03-1.03524E-02 1.38924E-02 4.65716E+00-2.80269E+01-4.53157E+01



 n o d a l   p r i n t   o u t   f o r   t i m e  s t e p    8401                              ( at time 4.1995797E+00 )

 nodal point  x-rot      y-rot       z-rot       x-rot vel   y-rot vel   z-rot vel   x-rot acc   y-rot acc   z-rot acc
    22626 -4.93709E-04 1.13518E-06 4.63181E-06-1.06240E-04 5.18123E-07 1.07098E-06 1.44625E-05 1.14776E-05-6.90756E-06



 n o d a l   p r i n t   o u t   f o r   t i m e  s t e p    8601                              ( at time 4.2995697E+00 )

 nodal point  x-disp     y-disp      z-disp      x-vel       y-vel       z-vel      x-accl      y-accl      z-accl      x-coor      y-coor      z-coor
    22626 -2.27940E-03 1.68314E-01-3.44217E-01-6.56982E-04 4.28364E-02-1.00838E-01-6.76742E-04-1.14292E-02 2.21792E-02 4.65710E+00-2.80225E+01-4.53259E+01



 n o d a l   p r i n t   o u t   f o r   t i m e  s t e p    8601                              ( at time 4.2995697E+00 )

 nodal point  x-rot      y-rot       z-rot       x-rot vel   y-rot vel   z-rot vel   x-rot acc   y-rot acc   z-rot acc
    22626 -5.03762E-04 1.24310E-06 4.88540E-06-9.79384E-05 2.14711E-06 2.05137E-06 8.30212E-05 1.62915E-05 9.80492E-06



 n o d a l   p r i n t   o u t   f o r   t i m e  s t e p    8801                              ( at time 4.3995597E+00 )

 nodal point  x-disp     y-disp      z-disp      x-vel       y-vel       z-vel      x-accl      y-accl      z-accl      x-coor      y-coor      z-coor
    22626 -2.34483E-03 1.72517E-01-3.54129E-01-5.21433E-04 4.11796E-02-9.73343E-02 1.35563E-03-1.65702E-02 3.50365E-02 4.65703E+00-2.80183E+01-4.53358E+01



 n o d a l   p r i n t   o u t   f o r   t i m e  s t e p    8801                              ( at time 4.3995597E+00 )

 nodal point  x-rot      y-rot       z-rot       x-rot vel   y-rot vel   z-rot vel   x-rot acc   y-rot acc   z-rot acc
    22626 -5.13511E-04 1.57632E-06 5.18206E-06-9.78505E-05 3.91049E-06 2.96290E-06 8.79461E-07 1.76356E-05 9.11625E-06



 n o d a l   p r i n t   o u t   f o r   t i m e  s t e p    9001                              ( at time 4.4995497E+00 )

 nodal point  x-disp     y-disp      z-disp      x-vel       y-vel       z-vel      x-accl      y-accl      z-accl      x-coor      y-coor      z-coor
    22626 -2.41516E-03 1.76623E-01-3.63766E-01-8.65201E-04 4.13809E-02-9.59247E-02-3.43801E-03 2.01349E-03 1.40979E-02 4.65696E+00-2.80142E+01-4.53455E+01



 n o d a l   p r i n t   o u t   f o r   t i m e  s t e p    9001                              ( at time 4.4995497E+00 )

 nodal point  x-rot      y-rot       z-rot       x-rot vel   y-rot vel   z-rot vel   x-rot acc   y-rot acc   z-rot acc
    22626 -5.23380E-04 1.83881E-06 5.20314E-06-9.52927E-05-6.19786E-07-3.95330E-06 2.55796E-05-4.53072E-05-6.91687E-05



 n o d a l   p r i n t   o u t   f o r   t i m e  s t e p    9201                              ( at time 4.5995397E+00 )

 nodal point  x-disp     y-disp      z-disp      x-vel       y-vel       z-vel      x-accl      y-accl      z-accl      x-coor      y-coor      z-coor
    22626 -2.50762E-03 1.80799E-01-3.73345E-01-9.72569E-04 4.22034E-02-9.52859E-02-1.07379E-03 8.22594E-03 6.38900E-03 4.65687E+00-2.80100E+01-4.53551E+01



 n o d a l   p r i n t   o u t   f o r   t i m e  s t e p    9201                              ( at time 4.5995397E+00 )

 nodal point  x-rot      y-rot       z-rot       x-rot vel   y-rot vel   z-rot vel   x-rot acc   y-rot acc   z-rot acc
    22626 -5.32238E-04 1.64132E-06 4.44817E-06-8.23255E-05-5.32993E-06-9.77533E-06 1.29685E-04-4.71062E-05-5.82261E-05



 n o d a l   p r i n t   o u t   f o r   t i m e  s t e p    9401                              ( at time 4.6995297E+00 )

 nodal point  x-disp     y-disp      z-disp      x-vel       y-vel       z-vel      x-accl      y-accl      z-accl      x-coor      y-coor      z-coor
    22626 -2.60080E-03 1.85042E-01-3.82792E-01-7.95296E-04 4.29737E-02-9.36136E-02 1.77291E-03 7.70352E-03 1.67246E-02 4.65677E+00-2.80058E+01-4.53645E+01



 n o d a l   p r i n t   o u t   f o r   t i m e  s t e p    9401                              ( at time 4.6995297E+00 )

 nodal point  x-rot      y-rot       z-rot       x-rot vel   y-rot vel   z-rot vel   x-rot acc   y-rot acc   z-rot acc
    22626 -5.40727E-04 1.13527E-06 3.35636E-06-9.10097E-05-4.13187E-06-1.00566E-05-8.68510E-05 1.19817E-05-2.81252E-06



 n o d a l   p r i n t   o u t   f o r   t i m e  s t e p    9601                              ( at time 4.7995197E+00 )

 nodal point  x-disp     y-disp      z-disp      x-vel       y-vel       z-vel      x-accl      y-accl      z-accl      x-coor      y-coor      z-coor
    22626 -2.66336E-03 1.89413E-01-3.92044E-01-4.78450E-04 4.46536E-02-9.11726E-02 3.16878E-03 1.68006E-02 2.44124E-02 4.65671E+00-2.80014E+01-4.53738E+01



 n o d a l   p r i n t   o u t   f o r   t i m e  s t e p    9601                              ( at time 4.7995197E+00 )

 nodal point  x-rot      y-rot       z-rot       x-rot vel   y-rot vel   z-rot vel   x-rot acc   y-rot acc   z-rot acc
    22626 -5.50320E-04 5.94778E-07 2.56427E-06-1.04208E-04-4.23154E-06-6.34521E-06-1.31996E-04-9.96739E-07 3.71172E-05



 n o d a l   p r i n t   o u t   f o r   t i m e  s t e p    9801                              ( at time 4.8995097E+00 )

 nodal point  x-disp     y-disp      z-disp      x-vel       y-vel       z-vel      x-accl      y-accl      z-accl      x-coor      y-coor      z-coor
    22626 -2.71334E-03 1.94011E-01-4.01027E-01-7.83165E-04 4.74832E-02-8.86629E-02-3.04745E-03 2.82992E-02 2.50992E-02 4.65666E+00-2.79968E+01-4.53827E+01



 n o d a l   p r i n t   o u t   f o r   t i m e  s t e p    9801                              ( at time 4.8995097E+00 )

 nodal point  x-rot      y-rot       z-rot       x-rot vel   y-rot vel   z-rot vel   x-rot acc   y-rot acc   z-rot acc
    22626 -5.61105E-04-1.84761E-07 1.35639E-06-1.12453E-04-1.09210E-05-1.81324E-05-8.24625E-05-6.69017E-05-1.17884E-04



 n o d a l   p r i n t   o u t   f o r   t i m e  s t e p   10001                              ( at time 4.9994997E+00 )

 nodal point  x-disp     y-disp      z-disp      x-vel       y-vel       z-vel      x-accl      y-accl      z-accl      x-coor      y-coor      z-coor
    22626 -2.82544E-03 1.98931E-01-4.09828E-01-1.35894E-03 5.15179E-02-8.73338E-02-5.75826E-03 4.03508E-02 1.32926E-02 4.65655E+00-2.79919E+01-4.53915E+01



 n o d a l   p r i n t   o u t   f o r   t i m e  s t e p   10001                              ( at time 4.9994997E+00 )

 nodal point  x-rot      y-rot       z-rot       x-rot vel   y-rot vel   z-rot vel   x-rot acc   y-rot acc   z-rot acc
    22626 -5.73554E-04-1.62724E-06-1.44935E-06-1.40275E-04-1.78361E-05-3.46746E-05-2.78247E-04-6.91574E-05-1.65438E-04



 n o d a l   p r i n t   o u t   f o r   t i m e  s t e p   10202                              ( at time 5.0999896E+00 )

 nodal point  x-disp     y-disp      z-disp      x-vel       y-vel       z-vel      x-accl      y-accl      z-accl      x-coor      y-coor      z-coor
    22626 -2.97620E-03 2.04370E-01-4.18524E-01-1.27424E-03 5.67985E-02-8.55905E-02 8.42867E-04 5.25484E-02 1.73480E-02 4.65640E+00-2.79865E+01-4.54002E+01



 n o d a l   p r i n t   o u t   f o r   t i m e  s t e p   10202                              ( at time 5.0999896E+00 )

 nodal point  x-rot      y-rot       z-rot       x-rot vel   y-rot vel   z-rot vel   x-rot acc   y-rot acc   z-rot acc
    22626 -5.89912E-04-3.32680E-06-4.61838E-06-1.85653E-04-1.38176E-05-2.68770E-05-4.51561E-04 3.99894E-05 7.75956E-05



 n o d a l   p r i n t   o u t   f o r   t i m e  s t e p   10402                              ( at time 5.1999796E+00 )

 nodal point  x-disp     y-disp      z-disp      x-vel       y-vel       z-vel      x-accl      y-accl      z-accl      x-coor      y-coor      z-coor
    22626 -3.09265E-03 2.10362E-01-4.26983E-01-1.45373E-03 6.31843E-02-8.33148E-02-1.79512E-03 6.38640E-02 2.27587E-02 4.65628E+00-2.79805E+01-4.54087E+01



 n o d a l   p r i n t   o u t   f o r   t i m e  s t e p   10402                              ( at time 5.1999796E+00 )

 nodal point  x-rot      y-rot       z-rot       x-rot vel   y-rot vel   z-rot vel   x-rot acc   y-rot acc   z-rot acc
    22626 -6.10927E-04-4.70332E-06-7.19028E-06-2.37307E-04-1.52459E-05-3.28235E-05-5.16595E-04-1.42845E-05-5.94703E-05



 n o d a l   p r i n t   o u t   f o r   t i m e  s t e p   10602                              ( at time 5.2999696E+00 )

 nodal point  x-disp     y-disp      z-disp      x-vel       y-vel       z-vel      x-accl      y-accl      z-accl      x-coor      y-coor      z-coor
    22626 -3.28868E-03 2.17037E-01-4.35167E-01-2.52263E-03 7.05984E-02-8.06089E-02-1.06901E-02 7.41493E-02 2.70617E-02 4.65609E+00-2.79738E+01-4.54169E+01



 n o d a l   p r i n t   o u t   f o r   t i m e  s t e p   10602                              ( at time 5.2999696E+00 )

 nodal point  x-rot      y-rot       z-rot       x-rot vel   y-rot vel   z-rot vel   x-rot acc   y-rot acc   z-rot acc
    22626 -6.37831E-04-6.85933E-06-1.15288E-05-3.01818E-04-2.25341E-05-4.86838E-05-6.45171E-04-7.28895E-05-1.58619E-04



 n o d a l   p r i n t   o u t   f o r   t i m e  s t e p   10802                              ( at time 5.3999596E+00 )

 nodal point  x-disp     y-disp      z-disp      x-vel       y-vel       z-vel      x-accl      y-accl      z-accl      x-coor      y-coor      z-coor
    22626 -3.54994E-03 2.24528E-01-4.43135E-01-2.26899E-03 7.93742E-02-7.90241E-02 2.53673E-03 8.77665E-02 1.58503E-02 4.65583E+00-2.79663E+01-4.54249E+01



 n o d a l   p r i n t   o u t   f o r   t i m e  s t e p   10802                              ( at time 5.3999596E+00 )

 nodal point  x-rot      y-rot       z-rot       x-rot vel   y-rot vel   z-rot vel   x-rot acc   y-rot acc   z-rot acc
    22626 -6.71376E-04-9.09239E-06-1.62871E-05-3.66578E-04-1.82019E-05-4.22165E-05-6.47670E-04 4.33268E-05 6.46799E-05



 n o d a l   p r i n t   o u t   f o r   t i m e  s t e p   11002                              ( at time 5.4999496E+00 )

 nodal point  x-disp     y-disp      z-disp      x-vel       y-vel       z-vel      x-accl      y-accl      z-accl      x-coor      y-coor      z-coor
    22626 -3.72289E-03 2.32959E-01-4.50961E-01-1.44367E-03 8.93590E-02-7.74237E-02 8.25398E-03 9.98582E-02 1.60052E-02 4.65565E+00-2.79579E+01-4.54327E+01



 n o d a l   p r i n t   o u t   f o r   t i m e  s t e p   11002                              ( at time 5.4999496E+00 )

 nodal point  x-rot      y-rot       z-rot       x-rot vel   y-rot vel   z-rot vel   x-rot acc   y-rot acc   z-rot acc
    22626 -7.11993E-04-1.07061E-05-2.01907E-05-4.46178E-04-1.73759E-05-3.51584E-05-7.96077E-04 8.26092E-06 7.05877E-05



 n o d a l   p r i n t   o u t   f o r   t i m e  s t e p   11202                              ( at time 5.5999396E+00 )

 nodal point  x-disp     y-disp      z-disp      x-vel       y-vel       z-vel      x-accl      y-accl      z-accl      x-coor      y-coor      z-coor
    22626 -3.87249E-03 2.42437E-01-4.58573E-01-1.89920E-03 1.00392E-01-7.47305E-02-4.55572E-03 1.10337E-01 2.69351E-02 4.65550E+00-2.79484E+01-4.54403E+01



 n o d a l   p r i n t   o u t   f o r   t i m e  s t e p   11202                              ( at time 5.5999396E+00 )

 nodal point  x-rot      y-rot       z-rot       x-rot vel   y-rot vel   z-rot vel   x-rot acc   y-rot acc   z-rot acc
    22626 -7.61225E-04-1.25423E-05-2.34217E-05-5.36064E-04-2.42412E-05-3.71676E-05-8.98956E-04-6.86599E-05-2.00936E-05



 n o d a l   p r i n t   o u t   f o r   t i m e  s t e p   11402                              ( at time 5.6999296E+00 )

 nodal point  x-disp     y-disp      z-disp      x-vel       y-vel       z-vel      x-accl      y-accl      z-accl      x-coor      y-coor      z-coor
    22626 -4.07331E-03 2.53049E-01-4.65890E-01-1.89614E-03 1.12020E-01-7.13294E-02 3.05480E-05 1.16291E-01 3.40136E-02 4.65530E+00-2.79378E+01-4.54476E+01



 n o d a l   p r i n t   o u t   f o r   t i m e  s t e p   11402                              ( at time 5.6999296E+00 )

 nodal point  x-rot      y-rot       z-rot       x-rot vel   y-rot vel   z-rot vel   x-rot acc   y-rot acc   z-rot acc
    22626 -8.19897E-04-1.50935E-05-2.80853E-05-6.29556E-04-2.30300E-05-5.09466E-05-9.35012E-04 1.21128E-05-1.37803E-04



 n o d a l   p r i n t   o u t   f o r   t i m e  s t e p   11602                              ( at time 5.7999195E+00 )

 nodal point  x-disp     y-disp      z-disp      x-vel       y-vel       z-vel      x-accl      y-accl      z-accl      x-coor      y-coor      z-coor
    22626 -4.24736E-03 2.64913E-01-4.72887E-01-1.21393E-03 1.25443E-01-6.88384E-02 6.82282E-03 1.34247E-01 2.49133E-02 4.65513E+00-2.79259E+01-4.54546E+01



 n o d a l   p r i n t   o u t   f o r   t i m e  s t e p   11602                              ( at time 5.7999195E+00 )

 nodal point  x-rot      y-rot       z-rot       x-rot vel   y-rot vel   z-rot vel   x-rot acc   y-rot acc   z-rot acc
    22626 -8.88029E-04-1.66467E-05-3.25057E-05-7.28271E-04-1.07852E-05-3.28512E-05-9.87242E-04 1.22460E-04 1.80972E-04



 n o d a l   p r i n t   o u t   f o r   t i m e  s t e p   11802                              ( at time 5.8999095E+00 )

 nodal point  x-disp     y-disp      z-disp      x-vel       y-vel       z-vel      x-accl      y-accl      z-accl      x-coor      y-coor      z-coor
    22626 -4.34106E-03 2.78170E-01-4.79731E-01-9.30848E-04 1.39763E-01-6.80593E-02 2.83111E-03 1.43212E-01 7.79186E-03 4.65503E+00-2.79127E+01-4.54615E+01



 n o d a l   p r i n t   o u t   f o r   t i m e  s t e p   11802                              ( at time 5.8999095E+00 )

 nodal point  x-rot      y-rot       z-rot       x-rot vel   y-rot vel   z-rot vel   x-rot acc   y-rot acc   z-rot acc
    22626 -9.66167E-04-1.82310E-05-3.57822E-05-8.45008E-04-2.16686E-05-3.65631E-05-1.16749E-03-1.08845E-04-3.71222E-05



 n o d a l   p r i n t   o u t   f o r   t i m e  s t e p   12002                              ( at time 5.9998995E+00 )

 nodal point  x-disp     y-disp      z-disp      x-vel       y-vel       z-vel      x-accl      y-accl      z-accl      x-coor      y-coor      z-coor
    22626 -4.46921E-03 2.92931E-01-4.86454E-01-1.60165E-03 1.55031E-01-6.62991E-02-6.70873E-03 1.52700E-01 1.76030E-02 4.65491E+00-2.78979E+01-4.54682E+01



 n o d a l   p r i n t   o u t   f o r   t i m e  s t e p   12002                              ( at time 5.9998995E+00 )

 nodal point  x-rot      y-rot       z-rot       x-rot vel   y-rot vel   z-rot vel   x-rot acc   y-rot acc   z-rot acc
    22626 -1.05635E-03-2.01480E-05-3.97793E-05-9.69275E-04-1.36786E-05-4.19961E-05-1.24279E-03 7.99078E-05-5.43356E-05



 n o d a l   p r i n t   o u t   f o r   t i m e  s t e p   12202                              ( at time 6.0998895E+00 )

 nodal point  x-disp     y-disp      z-disp      x-vel       y-vel       z-vel      x-accl      y-accl      z-accl      x-coor      y-coor      z-coor
    22626 -4.61301E-03 3.09260E-01-4.92955E-01-1.32157E-03 1.71798E-01-6.41971E-02 2.80106E-03 1.67682E-01 2.10222E-02 4.65476E+00-2.78816E+01-4.54747E+01



 n o d a l   p r i n t   o u t   f o r   t i m e  s t e p   12202                              ( at time 6.0998895E+00 )

 nodal point  x-rot      y-rot       z-rot       x-rot vel   y-rot vel   z-rot vel   x-rot acc   y-rot acc   z-rot acc
    22626 -1.15845E-03-2.13155E-05-4.36044E-05-1.08914E-03-6.48563E-06-3.04090E-05-1.19879E-03 7.19370E-05 1.15882E-04



 n o d a l   p r i n t   o u t   f o r   t i m e  s t e p   12402                              ( at time 6.1998795E+00 )

 nodal point  x-disp     y-disp      z-disp      x-vel       y-vel       z-vel      x-accl      y-accl      z-accl      x-coor      y-coor      z-coor
    22626 -4.69818E-03 3.27361E-01-4.99365E-01-6.38307E-04 1.90402E-01-6.40791E-02 6.83336E-03 1.86064E-01 1.18066E-03 4.65468E+00-2.78635E+01-4.54811E+01



 n o d a l   p r i n t   o u t   f o r   t i m e  s t e p   12402                              ( at time 6.1998795E+00 )

 nodal point  x-rot      y-rot       z-rot       x-rot vel   y-rot vel   z-rot vel   x-rot acc   y-rot acc   z-rot acc
    22626 -1.27293E-03-2.19292E-05-4.69034E-05-1.21711E-03-6.30982E-06-3.08836E-05-1.27977E-03 1.75829E-06-4.74646E-06



 n o d a l   p r i n t   o u t   f o r   t i m e  s t e p   12602                              ( at time 6.2998695E+00 )

 nodal point  x-disp     y-disp      z-disp      x-vel       y-vel       z-vel      x-accl      y-accl      z-accl      x-coor      y-coor      z-coor
    22626 -4.76999E-03 3.47336E-01-5.05755E-01-9.47543E-04 2.09542E-01-6.36473E-02-3.09268E-03 1.91416E-01 4.31753E-03 4.65460E+00-2.78435E+01-4.54875E+01



 n o d a l   p r i n t   o u t   f o r   t i m e  s t e p   12602                              ( at time 6.2998695E+00 )

 nodal point  x-rot      y-rot       z-rot       x-rot vel   y-rot vel   z-rot vel   x-rot acc   y-rot acc   z-rot acc
    22626 -1.40047E-03-2.29694E-05-5.03405E-05-1.34737E-03-1.13981E-05-3.77626E-05-1.30281E-03-5.08880E-05-6.87970E-05



 n o d a l   p r i n t   o u t   f o r   t i m e  s t e p   12802                              ( at time 6.3998595E+00 )

 nodal point  x-disp     y-disp      z-disp      x-vel       y-vel       z-vel      x-accl      y-accl      z-accl      x-coor      y-coor      z-coor
    22626 -4.88975E-03 3.69300E-01-5.12103E-01-1.14027E-03 2.29659E-01-6.31967E-02-1.92751E-03 2.01195E-01 4.50701E-03 4.65449E+00-2.78215E+01-4.54938E+01



 n o d a l   p r i n t   o u t   f o r   t i m e  s t e p   12802                              ( at time 6.3998595E+00 )

 nodal point  x-rot      y-rot       z-rot       x-rot vel   y-rot vel   z-rot vel   x-rot acc   y-rot acc   z-rot acc
    22626 -1.54159E-03-2.40255E-05-5.41843E-05-1.49336E-03-7.16821E-06-3.66612E-05-1.45998E-03 4.23033E-05 1.10150E-05



 n o d a l   p r i n t   o u t   f o r   t i m e  s t e p   13002                              ( at time 6.4998495E+00 )

 nodal point  x-disp     y-disp      z-disp      x-vel       y-vel       z-vel      x-accl      y-accl      z-accl      x-coor      y-coor      z-coor
    22626 -4.93313E-03 3.93294E-01-5.18341E-01 1.12253E-04 2.50338E-01-6.17554E-02 1.25265E-02 2.06811E-01 1.44139E-02 4.65444E+00-2.77975E+01-4.55001E+01



 n o d a l   p r i n t   o u t   f o r   t i m e  s t e p   13002                              ( at time 6.4998495E+00 )

 nodal point  x-rot      y-rot       z-rot       x-rot vel   y-rot vel   z-rot vel   x-rot acc   y-rot acc   z-rot acc
    22626 -1.69800E-03-2.40732E-05-5.75901E-05-1.64666E-03 5.11720E-06-2.49721E-05-1.53316E-03 1.22866E-04 1.16903E-04



 n o d a l   p r i n t   o u t   f o r   t i m e  s t e p   13202                              ( at time 6.5998395E+00 )

 nodal point  x-disp     y-disp      z-disp      x-vel       y-vel       z-vel      x-accl      y-accl      z-accl      x-coor      y-coor      z-coor
    22626 -4.89437E-03 4.19405E-01-5.24436E-01 4.90570E-04 2.72034E-01-6.00083E-02 3.78354E-03 2.16980E-01 1.74730E-02 4.65448E+00-2.77714E+01-4.55062E+01



 n o d a l   p r i n t   o u t   f o r   t i m e  s t e p   13202                              ( at time 6.5998395E+00 )

 nodal point  x-rot      y-rot       z-rot       x-rot vel   y-rot vel   z-rot vel   x-rot acc   y-rot acc   z-rot acc
    22626 -1.86961E-03-2.43006E-05-6.03952E-05-1.79365E-03-8.63410E-06-3.04916E-05-1.47002E-03-1.37526E-04-5.52004E-05



 n o d a l   p r i n t   o u t   f o r   t i m e  s t e p   13402                              ( at time 6.6998295E+00 )

 nodal point  x-disp     y-disp      z-disp      x-vel       y-vel       z-vel      x-accl      y-accl      z-accl      x-coor      y-coor      z-coor
    22626 -4.86721E-03 4.47727E-01-5.30378E-01 5.44301E-04 2.94684E-01-5.90143E-02 5.37365E-04 2.26519E-01 9.94164E-03 4.65451E+00-2.77431E+01-4.55121E+01



 n o d a l   p r i n t   o u t   f o r   t i m e  s t e p   13402                              ( at time 6.6998295E+00 )

 nodal point  x-rot      y-rot       z-rot       x-rot vel   y-rot vel   z-rot vel   x-rot acc   y-rot acc   z-rot acc
    22626 -2.05690E-03-2.52632E-05-6.39230E-05-1.95929E-03-1.52540E-06-3.32369E-05-1.65659E-03 7.10941E-05-2.74555E-05



 n o d a l   p r i n t   o u t   f o r   t i m e  s t e p   13602                              ( at time 6.7998195E+00 )

 nodal point  x-disp     y-disp      z-disp      x-vel       y-vel       z-vel      x-accl      y-accl      z-accl      x-coor      y-coor      z-coor
    22626 -4.75907E-03 4.78338E-01-5.36277E-01 1.58685E-03 3.17340E-01-5.90393E-02 1.04265E-02 2.26586E-01-2.50365E-04 4.65462E+00-2.77125E+01-4.55180E+01



 n o d a l   p r i n t   o u t   f o r   t i m e  s t e p   13602                              ( at time 6.7998195E+00 )

 nodal point  x-rot      y-rot       z-rot       x-rot vel   y-rot vel   z-rot vel   x-rot acc   y-rot acc   z-rot acc
    22626 -2.26110E-03-2.43202E-05-6.65269E-05-2.13223E-03 1.48716E-05-2.35032E-05-1.72956E-03 1.63987E-04 9.73463E-05



 n o d a l   p r i n t   o u t   f o r   t i m e  s t e p   13802                              ( at time 6.8998095E+00 )

 nodal point  x-disp     y-disp      z-disp      x-vel       y-vel       z-vel      x-accl      y-accl      z-accl      x-coor      y-coor      z-coor
    22626 -4.58981E-03 5.11339E-01-5.42108E-01 1.08412E-03 3.41908E-01-5.79912E-02-5.02775E-03 2.45700E-01 1.04815E-02 4.65479E+00-2.76795E+01-4.55238E+01



 n o d a l   p r i n t   o u t   f o r   t i m e  s t e p   13802                              ( at time 6.8998095E+00 )

 nodal point  x-rot      y-rot       z-rot       x-rot vel   y-rot vel   z-rot vel   x-rot acc   y-rot acc   z-rot acc
    22626 -2.48254E-03-2.36172E-05-6.89024E-05-2.30903E-03-3.92562E-06-3.00557E-05-1.76819E-03-1.87991E-04-6.55316E-05



 n o d a l   p r i n t   o u t   f o r   t i m e  s t e p   14002                              ( at time 6.9997995E+00 )

 nodal point  x-disp     y-disp      z-disp      x-vel       y-vel       z-vel      x-accl      y-accl      z-accl      x-coor      y-coor      z-coor
    22626 -4.50287E-03 5.46781E-01-5.47802E-01 1.20801E-03 3.66662E-01-5.64724E-02 1.23901E-03 2.47567E-01 1.51903E-02 4.65487E+00-2.76440E+01-4.55295E+01



 n o d a l   p r i n t   o u t   f o r   t i m e  s t e p   14002                              ( at time 6.9997995E+00 )

 nodal point  x-rot      y-rot       z-rot       x-rot vel   y-rot vel   z-rot vel   x-rot acc   y-rot acc   z-rot acc
    22626 -2.72197E-03-2.45033E-05-7.24942E-05-2.48754E-03-4.73244E-06-3.22348E-05-1.78532E-03-8.06901E-06-2.17927E-05



 n o d a l   p r i n t   o u t   f o r   t i m e  s t e p   14202                              ( at time 7.0997895E+00 )

 nodal point  x-disp     y-disp      z-disp      x-vel       y-vel       z-vel      x-accl      y-accl      z-accl      x-coor      y-coor      z-coor
    22626 -4.36235E-03 5.84722E-01-5.53344E-01 2.11402E-03 3.92260E-01-5.49298E-02 9.06098E-03 2.56003E-01 1.54275E-02 4.65501E+00-2.76061E+01-4.55351E+01



 n o d a l   p r i n t   o u t   f o r   t i m e  s t e p   14202                              ( at time 7.0997895E+00 )

 nodal point  x-rot      y-rot       z-rot       x-rot vel   y-rot vel   z-rot vel   x-rot acc   y-rot acc   z-rot acc
    22626 -2.97881E-03-2.33531E-05-7.49433E-05-2.66670E-03 2.63633E-05-2.28444E-05-1.79173E-03 3.10987E-04 9.39133E-05



 n o d a l   p r i n t   o u t   f o r   t i m e  s t e p   14402                              ( at time 7.1997794E+00 )

 nodal point  x-disp     y-disp      z-disp      x-vel       y-vel       z-vel      x-accl      y-accl      z-accl      x-coor      y-coor      z-coor
    22626 -4.16089E-03 6.25246E-01-5.58765E-01 1.40258E-03 4.17810E-01-5.35486E-02-7.11511E-03 2.55526E-01 1.38131E-02 4.65521E+00-2.75656E+01-4.55405E+01



 n o d a l   p r i n t   o u t   f o r   t i m e  s t e p   14402                              ( at time 7.1997794E+00 )

 nodal point  x-rot      y-rot       z-rot       x-rot vel   y-rot vel   z-rot vel   x-rot acc   y-rot acc   z-rot acc
    22626 -3.25508E-03-2.07078E-05-7.68235E-05-2.86176E-03 1.56752E-05-2.60577E-05-1.95078E-03-1.06892E-04-3.21365E-05



 n o d a l   p r i n t   o u t   f o r   t i m e  s t e p   14602                              ( at time 7.2997694E+00 )

 nodal point  x-disp     y-disp      z-disp      x-vel       y-vel       z-vel      x-accl      y-accl      z-accl      x-coor      y-coor      z-coor
    22626 -4.05058E-03 6.68281E-01-5.63959E-01 6.76956E-04 4.42813E-01-5.03432E-02-7.25700E-03 2.50060E-01 3.20570E-02 4.65532E+00-2.75225E+01-4.55457E+01



 n o d a l   p r i n t   o u t   f o r   t i m e  s t e p   14602                              ( at time 7.2997694E+00 )

 nodal point  x-rot      y-rot       z-rot       x-rot vel   y-rot vel   z-rot vel   x-rot acc   y-rot acc   z-rot acc
    22626 -3.55060E-03-1.94166E-05-7.98423E-05-3.04843E-03 1.60336E-05-3.62028E-05-1.86688E-03 3.58457E-06-1.01461E-04



 n o d a l   p r i n t   o u t   f o r   t i m e  s t e p   14802                              ( at time 7.3997594E+00 )

 nodal point  x-disp     y-disp      z-disp      x-vel       y-vel       z-vel      x-accl      y-accl      z-accl      x-coor      y-coor      z-coor
    22626 -3.93819E-03 7.13899E-01-5.68815E-01 1.98927E-03 4.68835E-01-4.67832E-02 1.31245E-02 2.60241E-01 3.56035E-02 4.65544E+00-2.74769E+01-4.55505E+01



 n o d a l   p r i n t   o u t   f o r   t i m e  s t e p   14802                              ( at time 7.3997594E+00 )

 nodal point  x-rot      y-rot       z-rot       x-rot vel   y-rot vel   z-rot vel   x-rot acc   y-rot acc   z-rot acc
    22626 -3.86569E-03-1.72961E-05-8.31812E-05-3.25280E-03 3.09805E-05-2.96546E-05-2.04392E-03 1.49484E-04 6.54885E-05



 n o d a l   p r i n t   o u t   f o r   t i m e  s t e p   15002                              ( at time 7.4997494E+00 )

 nodal point  x-disp     y-disp      z-disp      x-vel       y-vel       z-vel      x-accl      y-accl      z-accl      x-coor      y-coor      z-coor
    22626 -3.71449E-03 7.62061E-01-5.73306E-01 2.69545E-03 4.94824E-01-4.33123E-02 7.06246E-03 2.59921E-01 3.47122E-02 4.65566E+00-2.74288E+01-4.55550E+01



 n o d a l   p r i n t   o u t   f o r   t i m e  s t e p   15002                              ( at time 7.4997494E+00 )

 nodal point  x-rot      y-rot       z-rot       x-rot vel   y-rot vel   z-rot vel   x-rot acc   y-rot acc   z-rot acc
    22626 -4.20080E-03-1.47248E-05-8.62306E-05-3.44564E-03 1.66748E-05-3.81113E-05-1.92863E-03-1.43071E-04-8.45755E-05



 n o d a l   p r i n t   o u t   f o r   t i m e  s t e p   15202                              ( at time 7.5997394E+00 )

 nodal point  x-disp     y-disp      z-disp      x-vel       y-vel       z-vel      x-accl      y-accl      z-accl      x-coor      y-coor      z-coor
    22626 -3.44656E-03 8.12888E-01-5.77500E-01 2.23772E-03 5.21759E-01-4.05452E-02-4.57777E-03 2.69379E-01 2.76746E-02 4.65593E+00-2.73779E+01-4.55592E+01



 n o d a l   p r i n t   o u t   f o r   t i m e  s t e p   15202                              ( at time 7.5997394E+00 )

 nodal point  x-rot      y-rot       z-rot       x-rot vel   y-rot vel   z-rot vel   x-rot acc   y-rot acc   z-rot acc
    22626 -4.55493E-03-1.35698E-05-9.07075E-05-3.64054E-03 8.39551E-06-4.53892E-05-1.94914E-03-8.28008E-05-7.27862E-05



 n o d a l   p r i n t   o u t   f o r   t i m e  s t e p   15402                              ( at time 7.6997294E+00 )

 nodal point  x-disp     y-disp      z-disp      x-vel       y-vel       z-vel      x-accl      y-accl      z-accl      x-coor      y-coor      z-coor
    22626 -3.19394E-03 8.66400E-01-5.81365E-01 2.88088E-03 5.48695E-01-3.69775E-02 6.43222E-03 2.69381E-01 3.56804E-02 4.65618E+00-2.73244E+01-4.55631E+01



 n o d a l   p r i n t   o u t   f o r   t i m e  s t e p   15402                              ( at time 7.6997294E+00 )

 nodal point  x-rot      y-rot       z-rot       x-rot vel   y-rot vel   z-rot vel   x-rot acc   y-rot acc   z-rot acc
    22626 -4.92991E-03-1.25939E-05-9.56904E-05-3.85905E-03 1.07906E-05-5.05102E-05-2.18540E-03 2.39538E-05-5.12153E-05



 n o d a l   p r i n t   o u t   f o r   t i m e  s t e p   15602                              ( at time 7.7997194E+00 )

 nodal point  x-disp     y-disp      z-disp      x-vel       y-vel       z-vel      x-accl      y-accl      z-accl      x-coor      y-coor      z-coor
    22626 -2.90642E-03 9.22663E-01-5.84878E-01 2.65726E-03 5.76590E-01-3.32640E-02-2.23637E-03 2.78984E-01 3.71387E-02 4.65647E+00-2.72682E+01-4.55666E+01



 n o d a l   p r i n t   o u t   f o r   t i m e  s t e p   15602                              ( at time 7.7997194E+00 )

 nodal point  x-rot      y-rot       z-rot       x-rot vel   y-rot vel   z-rot vel   x-rot acc   y-rot acc   z-rot acc
    22626 -5.32605E-03-1.19626E-05-1.00854E-04-4.05801E-03 9.46464E-06-4.82498E-05-1.98977E-03-1.32615E-05 2.26059E-05



 n o d a l   p r i n t   o u t   f o r   t i m e  s t e p   15802                              ( at time 7.8997094E+00 )

 nodal point  x-disp     y-disp      z-disp      x-vel       y-vel       z-vel      x-accl      y-accl      z-accl      x-coor      y-coor      z-coor
    22626 -2.65853E-03 9.81741E-01-5.88000E-01 2.85362E-03 6.04886E-01-2.92914E-02 1.96379E-03 2.82988E-01 3.97296E-02 4.65672E+00-2.72091E+01-4.55697E+01



 n o d a l   p r i n t   o u t   f o r   t i m e  s t e p   15802                              ( at time 7.8997094E+00 )

 nodal point  x-rot      y-rot       z-rot       x-rot vel   y-rot vel   z-rot vel   x-rot acc   y-rot acc   z-rot acc
    22626 -5.74149E-03-1.10278E-05-1.06406E-04-4.25294E-03 9.42429E-06-6.07224E-05-1.94946E-03-4.03547E-07-1.24738E-04



 n o d a l   p r i n t   o u t   f o r   t i m e  s t e p   16002                              ( at time 7.9996994E+00 )

 nodal point  x-disp     y-disp      z-disp      x-vel       y-vel       z-vel      x-accl      y-accl      z-accl      x-coor      y-coor      z-coor
    22626 -2.37955E-03 1.04364E+00-5.90755E-01 2.66585E-03 6.33619E-01-2.54219E-02-1.87791E-03 2.87355E-01 3.86990E-02 4.65700E+00-2.71472E+01-4.55725E+01



 n o d a l   p r i n t   o u t   f o r   t i m e  s t e p   16002                              ( at time 7.9996994E+00 )

 nodal point  x-rot      y-rot       z-rot       x-rot vel   y-rot vel   z-rot vel   x-rot acc   y-rot acc   z-rot acc
    22626 -6.17723E-03-9.94025E-06-1.12221E-04-4.45817E-03 5.08695E-06-5.93369E-05-2.05250E-03-4.33775E-05 1.38558E-05



 n o d a l   p r i n t   o u t   f o r   t i m e  s t e p   16202                              ( at time 8.0996894E+00 )

 nodal point  x-disp     y-disp      z-disp      x-vel       y-vel       z-vel      x-accl      y-accl      z-accl      x-coor      y-coor      z-coor
    22626 -2.10960E-03 1.10843E+00-5.93070E-01 2.60289E-03 6.61811E-01-2.06353E-02-6.29684E-04 2.81950E-01 4.78706E-02 4.65727E+00-2.70824E+01-4.55748E+01



 n o d a l   p r i n t   o u t   f o r   t i m e  s t e p   16202                              ( at time 8.0996894E+00 )

 nodal point  x-rot      y-rot       z-rot       x-rot vel   y-rot vel   z-rot vel   x-rot acc   y-rot acc   z-rot acc
    22626 -6.63396E-03-9.50741E-06-1.17855E-04-4.66864E-03-7.84640E-07-5.87787E-05-2.10496E-03-5.87219E-05 5.58250E-06



 n o d a l   p r i n t   o u t   f o r   t i m e  s t e p   16402                              ( at time 8.1996794E+00 )

 nodal point  x-disp     y-disp      z-disp      x-vel       y-vel       z-vel      x-accl      y-accl      z-accl      x-coor      y-coor      z-coor
    22626 -1.82566E-03 1.17601E+00-5.94856E-01 3.11010E-03 6.90341E-01-1.49623E-02 5.07265E-03 2.85328E-01 5.67363E-02 4.65755E+00-2.70148E+01-4.55766E+01



 n o d a l   p r i n t   o u t   f o r   t i m e  s t e p   16402                              ( at time 8.1996794E+00 )

 nodal point  x-rot      y-rot       z-rot       x-rot vel   y-rot vel   z-rot vel   x-rot acc   y-rot acc   z-rot acc
    22626 -7.11158E-03-8.69036E-06-1.23796E-04-4.87878E-03 1.83227E-05-6.23252E-05-2.10155E-03 1.91092E-04-3.54685E-05



 n o d a l   p r i n t   o u t   f o r   t i m e  s t e p   16602                              ( at time 8.2996694E+00 )

 nodal point  x-disp     y-disp      z-disp      x-vel       y-vel       z-vel      x-accl      y-accl      z-accl      x-coor      y-coor      z-coor
    22626 -1.51979E-03 1.24643E+00-5.96036E-01 3.15685E-03 7.18430E-01-8.67201E-03 4.67504E-04 2.80918E-01 6.29088E-02 4.65786E+00-2.69444E+01-4.55778E+01



 n o d a l   p r i n t   o u t   f o r   t i m e  s t e p   16602                              ( at time 8.2996694E+00 )

 nodal point  x-rot      y-rot       z-rot       x-rot vel   y-rot vel   z-rot vel   x-rot acc   y-rot acc   z-rot acc
    22626 -7.60973E-03-7.82637E-06-1.29643E-04-5.08159E-03 7.85024E-06-5.95699E-05-2.02830E-03-1.04735E-04 2.75563E-05



 n o d a l   p r i n t   o u t   f o r   t i m e  s t e p   16802                              ( at time 8.3996594E+00 )

 nodal point  x-disp     y-disp      z-disp      x-vel       y-vel       z-vel      x-accl      y-accl      z-accl      x-coor      y-coor      z-coor
    22626 -1.18709E-03 1.31970E+00-5.96570E-01 2.90903E-03 7.46949E-01-2.01693E-03-2.47845E-03 2.85214E-01 6.65575E-02 4.65819E+00-2.68711E+01-4.55783E+01



 n o d a l   p r i n t   o u t   f o r   t i m e  s t e p   16802                              ( at time 8.3996594E+00 )

 nodal point  x-rot      y-rot       z-rot       x-rot vel   y-rot vel   z-rot vel   x-rot acc   y-rot acc   z-rot acc
    22626 -8.12825E-03-7.37190E-06-1.35772E-04-5.29582E-03 4.88376E-06-6.90200E-05-2.14260E-03-2.96678E-05-9.45115E-05



 n o d a l   p r i n t   o u t   f o r   t i m e  s t e p   17002                              ( at time 8.4996494E+00 )

 nodal point  x-disp     y-disp      z-disp      x-vel       y-vel       z-vel      x-accl      y-accl      z-accl      x-coor      y-coor      z-coor
    22626 -8.55462E-04 1.39580E+00-5.96372E-01 3.41930E-03 7.75134E-01 5.62251E-03 5.10321E-03 2.81882E-01 7.64021E-02 4.65852E+00-2.67950E+01-4.55781E+01



 n o d a l   p r i n t   o u t   f o r   t i m e  s t e p   17002                              ( at time 8.4996494E+00 )

 nodal point  x-rot      y-rot       z-rot       x-rot vel   y-rot vel   z-rot vel   x-rot acc   y-rot acc   z-rot acc
    22626 -8.66831E-03-6.61545E-06-1.42067E-04-5.50157E-03 1.13141E-05-6.43206E-05-2.05763E-03 6.43102E-05 4.69989E-05



 n o d a l   p r i n t   o u t   f o r   t i m e  s t e p   17202                              ( at time 8.5996394E+00 )

 nodal point  x-disp     y-disp      z-disp      x-vel       y-vel       z-vel      x-accl      y-accl      z-accl      x-coor      y-coor      z-coor
    22626 -4.99730E-04 1.47479E+00-5.95445E-01 3.85249E-03 8.03770E-01 1.33302E-02 4.33239E-03 2.86388E-01 7.70848E-02 4.65888E+00-2.67160E+01-4.55772E+01



 n o d a l   p r i n t   o u t   f o r   t i m e  s t e p   17202                              ( at time 8.5996394E+00 )

 nodal point  x-rot      y-rot       z-rot       x-rot vel   y-rot vel   z-rot vel   x-rot acc   y-rot acc   z-rot acc
    22626 -9.22934E-03-5.69339E-06-1.47627E-04-5.71283E-03 8.41138E-06-5.57275E-05-2.11289E-03-2.90304E-05 8.59396E-05



 n o d a l   p r i n t   o u t   f o r   t i m e  s t e p   17402                              ( at time 8.6996293E+00 )

 nodal point  x-disp     y-disp      z-disp      x-vel       y-vel       z-vel      x-accl      y-accl      z-accl      x-coor      y-coor      z-coor
    22626 -1.05289E-04 1.55656E+00-5.93643E-01 3.72598E-03 8.31836E-01 2.26764E-02-1.26523E-03 2.80691E-01 9.34701E-02 4.65927E+00-2.66343E+01-4.55754E+01



 n o d a l   p r i n t   o u t   f o r   t i m e  s t e p   17402                              ( at time 8.6996293E+00 )

 nodal point  x-rot      y-rot       z-rot       x-rot vel   y-rot vel   z-rot vel   x-rot acc   y-rot acc   z-rot acc
    22626 -9.81130E-03-4.52866E-06-1.53462E-04-5.92570E-03 1.55061E-05-5.17903E-05-2.12886E-03 7.09537E-05 3.93760E-05



 n o d a l   p r i n t   o u t   f o r   t i m e  s t e p   17602                              ( at time 8.7996193E+00 )

 nodal point  x-disp     y-disp      z-disp      x-vel       y-vel       z-vel      x-accl      y-accl      z-accl      x-coor      y-coor      z-coor
    22626  2.61222E-04 1.64116E+00-5.90897E-01 3.97708E-03 8.60132E-01 3.20770E-02 2.51124E-03 2.82981E-01 9.40162E-02 4.65964E+00-2.65497E+01-4.55726E+01



 n o d a l   p r i n t   o u t   f o r   t i m e  s t e p   17602                              ( at time 8.7996193E+00 )

 nodal point  x-rot      y-rot       z-rot       x-rot vel   y-rot vel   z-rot vel   x-rot acc   y-rot acc   z-rot acc
    22626 -1.04134E-02-2.75607E-06-1.58463E-04-6.12405E-03 1.80124E-05-4.88183E-05-1.98368E-03 2.50651E-05 2.97226E-05



 n o d a l   p r i n t   o u t   f o r   t i m e  s t e p   17802                              ( at time 8.8996093E+00 )

 nodal point  x-disp     y-disp      z-disp      x-vel       y-vel       z-vel      x-accl      y-accl      z-accl      x-coor      y-coor      z-coor
    22626  6.57829E-04 1.72858E+00-5.87175E-01 3.86709E-03 8.88031E-01 4.21096E-02-1.09995E-03 2.79026E-01 1.00336E-01 4.66003E+00-2.64622E+01-4.55689E+01



 n o d a l   p r i n t   o u t   f o r   t i m e  s t e p   17802                              ( at time 8.8996093E+00 )

 nodal point  x-rot      y-rot       z-rot       x-rot vel   y-rot vel   z-rot vel   x-rot acc   y-rot acc   z-rot acc
    22626 -1.10358E-02-3.16147E-07-1.63129E-04-6.33212E-03 3.08199E-05-4.40661E-05-2.08091E-03 1.28088E-04 4.75270E-05



 n o d a l   p r i n t   o u t   f o r   t i m e  s t e p   18002                              ( at time 8.9995993E+00 )

 nodal point  x-disp     y-disp      z-disp      x-vel       y-vel       z-vel      x-accl      y-accl      z-accl      x-coor      y-coor      z-coor
    22626  1.07119E-03 1.81877E+00-5.82385E-01 4.18353E-03 9.15214E-01 5.34536E-02 3.16473E-03 2.71853E-01 1.13451E-01 4.66045E+00-2.63721E+01-4.55641E+01



 n o d a l   p r i n t   o u t   f o r   t i m e  s t e p   18002                              ( at time 8.9995993E+00 )

 nodal point  x-rot      y-rot       z-rot       x-rot vel   y-rot vel   z-rot vel   x-rot acc   y-rot acc   z-rot acc
    22626 -1.16784E-02 3.03781E-06-1.67118E-04-6.52731E-03 3.27149E-05-2.99869E-05-1.95212E-03 1.89524E-05 1.40807E-04



 n o d a l   p r i n t   o u t   f o r   t i m e  s t e p   18202                              ( at time 9.0995893E+00 )

 nodal point  x-disp     y-disp      z-disp      x-vel       y-vel       z-vel      x-accl      y-accl      z-accl      x-coor      y-coor      z-coor
    22626  1.49189E-03 1.91166E+00-5.76452E-01 4.45754E-03 9.42528E-01 6.49336E-02 2.74030E-03 2.73166E-01 1.14812E-01 4.66087E+00-2.62792E+01-4.55582E+01



 n o d a l   p r i n t   o u t   f o r   t i m e  s t e p   18202                              ( at time 9.0995893E+00 )

 nodal point  x-rot      y-rot       z-rot       x-rot vel   y-rot vel   z-rot vel   x-rot acc   y-rot acc   z-rot acc
    22626 -1.23403E-02 6.28475E-06-1.70752E-04-6.71963E-03 4.29649E-05-3.61010E-05-1.92340E-03 1.02510E-04-6.11477E-05



 n o d a l   p r i n t   o u t   f o r   t i m e  s t e p   18402                              ( at time 9.1995793E+00 )

 nodal point  x-disp     y-disp      z-disp      x-vel       y-vel       z-vel      x-accl      y-accl      z-accl      x-coor      y-coor      z-coor
    22626  1.92733E-03 2.00724E+00-5.69330E-01 4.68296E-03 9.69258E-01 7.73211E-02 2.25445E-03 2.67331E-01 1.23887E-01 4.66130E+00-2.61836E+01-4.55510E+01



 n o d a l   p r i n t   o u t   f o r   t i m e  s t e p   18402                              ( at time 9.1995793E+00 )

 nodal point  x-rot      y-rot       z-rot       x-rot vel   y-rot vel   z-rot vel   x-rot acc   y-rot acc   z-rot acc
    22626 -1.30209E-02 1.05487E-05-1.73800E-04-6.89844E-03 4.78303E-05-2.81469E-05-1.78823E-03 4.86593E-05 7.95497E-05



 n o d a l   p r i n t   o u t   f o r   t i m e  s t e p   18602                              ( at time 9.2995693E+00 )

 nodal point  x-disp     y-disp      z-disp      x-vel       y-vel       z-vel      x-accl      y-accl      z-accl      x-coor      y-coor      z-coor
    22626  2.45343E-03 2.10552E+00-5.60953E-01 5.17911E-03 9.95815E-01 8.99602E-02 4.96202E-03 2.65593E-01 1.26404E-01 4.66183E+00-2.60853E+01-4.55427E+01



 n o d a l   p r i n t   o u t   f o r   t i m e  s t e p   18602                              ( at time 9.2995693E+00 )

 nodal point  x-rot      y-rot       z-rot       x-rot vel   y-rot vel   z-rot vel   x-rot acc   y-rot acc   z-rot acc
    22626 -1.37193E-02 1.58391E-05-1.76073E-04-7.07957E-03 5.10537E-05-2.13617E-05-1.81150E-03 3.22371E-05 6.78588E-05



 n o d a l   p r i n t   o u t   f o r   t i m e  s t e p   18802                              ( at time 9.3995593E+00 )

 nodal point  x-disp     y-disp      z-disp      x-vel       y-vel       z-vel      x-accl      y-accl      z-accl      x-coor      y-coor      z-coor
    22626  2.99740E-03 2.20636E+00-5.51267E-01 5.60685E-03 1.02118E+00 1.03306E-01 4.27783E-03 2.53723E-01 1.33476E-01 4.66237E+00-2.59845E+01-4.55330E+01



 n o d a l   p r i n t   o u t   f o r   t i m e  s t e p   18802                              ( at time 9.3995593E+00 )

 nodal point  x-rot      y-rot       z-rot       x-rot vel   y-rot vel   z-rot vel   x-rot acc   y-rot acc   z-rot acc
    22626 -1.44352E-02 2.06275E-05-1.78385E-04-7.25395E-03 4.92206E-05-2.22002E-05-1.74400E-03-1.83325E-05-8.38659E-06



 n o d a l   p r i n t   o u t   f o r   t i m e  s t e p   19002                              ( at time 9.4995493E+00 )

 nodal point  x-disp     y-disp      z-disp      x-vel       y-vel       z-vel      x-accl      y-accl      z-accl      x-coor      y-coor      z-coor
    22626  3.50775E-03 2.30977E+00-5.40223E-01 5.29136E-03 1.04694E+00 1.17558E-01-3.15520E-03 2.57534E-01 1.42535E-01 4.66288E+00-2.58811E+01-4.55219E+01



 n o d a l   p r i n t   o u t   f o r   t i m e  s t e p   19002                              ( at time 9.4995493E+00 )

 nodal point  x-rot      y-rot       z-rot       x-rot vel   y-rot vel   z-rot vel   x-rot acc   y-rot acc   z-rot acc
    22626 -1.51679E-02 2.59100E-05-1.80670E-04-7.40113E-03 5.81520E-05-2.16964E-05-1.47196E-03 8.93231E-05 5.03855E-06



 n o d a l   p r i n t   o u t   f o r   t i m e  s t e p   19202                              ( at time 9.5995393E+00 )

 nodal point  x-disp     y-disp      z-disp      x-vel       y-vel       z-vel      x-accl      y-accl      z-accl      x-coor      y-coor      z-coor
    22626  4.09285E-03 2.41567E+00-5.27719E-01 5.97312E-03 1.07116E+00 1.32936E-01 6.81824E-03 2.42257E-01 1.53794E-01 4.66347E+00-2.57752E+01-4.55094E+01



 n o d a l   p r i n t   o u t   f o r   t i m e  s t e p   19202                              ( at time 9.5995393E+00 )

 nodal point  x-rot      y-rot       z-rot       x-rot vel   y-rot vel   z-rot vel   x-rot acc   y-rot acc   z-rot acc
    22626 -1.59157E-02 3.23109E-05-1.82732E-04-7.55595E-03 6.36173E-05-1.45997E-05-1.54829E-03 5.46582E-05 7.09742E-05



 n o d a l   p r i n t   o u t   f o r   t i m e  s t e p   19402                              ( at time 9.6995293E+00 )

 nodal point  x-disp     y-disp      z-disp      x-vel       y-vel       z-vel      x-accl      y-accl      z-accl      x-coor      y-coor      z-coor
    22626  4.69652E-03 2.52398E+00-5.13644E-01 5.94278E-03 1.09528E+00 1.48505E-01-3.03446E-04 2.41207E-01 1.55700E-01 4.66407E+00-2.56668E+01-4.54954E+01



 n o d a l   p r i n t   o u t   f o r   t i m e  s t e p   19402                              ( at time 9.6995293E+00 )

 nodal point  x-rot      y-rot       z-rot       x-rot vel   y-rot vel   z-rot vel   x-rot acc   y-rot acc   z-rot acc
    22626 -1.66791E-02 3.92195E-05-1.83990E-04-7.70869E-03 6.55326E-05-1.21709E-05-1.52760E-03 1.91543E-05 2.42904E-05



 n o d a l   p r i n t   o u t   f o r   t i m e  s t e p   19602                              ( at time 9.7995193E+00 )

 nodal point  x-disp     y-disp      z-disp      x-vel       y-vel       z-vel      x-accl      y-accl      z-accl      x-coor      y-coor      z-coor
    22626  5.24777E-03 2.63468E+00-4.97972E-01 5.82799E-03 1.11787E+00 1.64758E-01-1.14803E-03 2.25983E-01 1.62545E-01 4.66462E+00-2.55562E+01-4.54797E+01



 n o d a l   p r i n t   o u t   f o r   t i m e  s t e p   19602                              ( at time 9.7995193E+00 )

 nodal point  x-rot      y-rot       z-rot       x-rot vel   y-rot vel   z-rot vel   x-rot acc   y-rot acc   z-rot acc
    22626 -1.74573E-02 4.60918E-05-1.85000E-04-7.86317E-03 7.77884E-05-1.42328E-05-1.54491E-03 1.22571E-04-2.06213E-05



 n o d a l   p r i n t   o u t   f o r   t i m e  s t e p   19802                              ( at time 9.8995093E+00 )

 nodal point  x-disp     y-disp      z-disp      x-vel       y-vel       z-vel      x-accl      y-accl      z-accl      x-coor      y-coor      z-coor
    22626  5.86868E-03 2.74762E+00-4.80577E-01 6.50641E-03 1.14040E+00 1.82827E-01 6.78490E-03 2.25269E-01 1.80711E-01 4.66524E+00-2.54432E+01-4.54623E+01



 n o d a l   p r i n t   o u t   f o r   t i m e  s t e p   19802                              ( at time 9.8995093E+00 )

 nodal point  x-rot      y-rot       z-rot       x-rot vel   y-rot vel   z-rot vel   x-rot acc   y-rot acc   z-rot acc
    22626 -1.82504E-02 5.46425E-05-1.85747E-04-8.01441E-03 9.20918E-05 1.47652E-06-1.51256E-03 1.43048E-04 1.57109E-04



 n o d a l   p r i n t   o u t   f o r   t i m e  s t e p   20003                              ( at time 9.9999992E+00 )

 nodal point  x-disp     y-disp      z-disp      x-vel       y-vel       z-vel      x-accl      y-accl      z-accl      x-coor      y-coor      z-coor
[...]
    22626 -3.39207E-02 2.81365E-04-1.48002E-04-1.02316E-02 1.96203E-04 7.80640E-05-7.35391E-04 1.59949E-04-3.13800E-06



 n o d a l   p r i n t   o u t   f o r   t i m e  s t e p   23403                              ( at time 1.1699829E+01 )

 nodal point  x-disp     y-disp      z-disp      x-vel       y-vel       z-vel      x-accl      y-accl      z-accl      x-coor      y-coor      z-coor
    22626  2.29270E-02 5.04828E+00 2.98033E-01 1.33284E-02 1.36478E+00 7.34510E-01 1.40121E-02 6.14705E-02 3.48452E-01 4.68230E+00-2.31426E+01-4.46837E+01



 n o d a l   p r i n t   o u t   f o r   t i m e  s t e p   23403                              ( at time 1.1699829E+01 )

 nodal point  x-rot      y-rot       z-rot       x-rot vel   y-rot vel   z-rot vel   x-rot acc   y-rot acc   z-rot acc
    22626 -3.49470E-02 3.02153E-04-1.39040E-04-1.02879E-02 2.24949E-04 1.02051E-04-5.63293E-04 2.87482E-04 2.39898E-04



 n o d a l   p r i n t   o u t   f o r   t i m e  s t e p   23603                              ( at time 1.1799819E+01 )

 nodal point  x-disp     y-disp      z-disp      x-vel       y-vel       z-vel      x-accl      y-accl      z-accl      x-coor      y-coor      z-coor
    22626  2.41645E-02 5.18499E+00 3.73312E-01 1.18205E-02 1.36986E+00 7.70070E-01-1.50808E-02 5.07895E-02 3.55634E-01 4.68354E+00-2.30058E+01-4.46084E+01



 n o d a l   p r i n t   o u t   f o r   t i m e  s t e p   23603                              ( at time 1.1799819E+01 )

 nodal point  x-rot      y-rot       z-rot       x-rot vel   y-rot vel   z-rot vel   x-rot acc   y-rot acc   z-rot acc
    22626 -3.59777E-02 3.23055E-04-1.30126E-04-1.03262E-02 2.09534E-04 8.68797E-05-3.82635E-04-1.54161E-04-1.51731E-04



 n o d a l   p r i n t   o u t   f o r   t i m e  s t e p   23803                              ( at time 1.1899809E+01 )

 nodal point  x-disp     y-disp      z-disp      x-vel       y-vel       z-vel      x-accl      y-accl      z-accl      x-coor      y-coor      z-coor
    22626  2.54134E-02 5.32223E+00 4.52066E-01 1.31245E-02 1.37471E+00 8.05250E-01 1.30419E-02 4.84718E-02 3.51835E-01 4.68479E+00-2.28686E+01-4.45297E+01



 n o d a l   p r i n t   o u t   f o r   t i m e  s t e p   23803                              ( at time 1.1899809E+01 )

 nodal point  x-rot      y-rot       z-rot       x-rot vel   y-rot vel   z-rot vel   x-rot acc   y-rot acc   z-rot acc
    22626 -3.70125E-02 3.44272E-04-1.20309E-04-1.03647E-02 2.23208E-04 1.14550E-04-3.85327E-04 1.36752E-04 2.76735E-04



 n o d a l   p r i n t   o u t   f o r   t i m e  s t e p   24003                              ( at time 1.1999799E+01 )

 nodal point  x-disp     y-disp      z-disp      x-vel       y-vel       z-vel      x-accl      y-accl      z-accl      x-coor      y-coor      z-coor
    22626  2.68098E-02 5.45990E+00 5.34422E-01 1.36237E-02 1.37860E+00 8.41451E-01 4.99229E-03 3.89448E-02 3.62053E-01 4.68618E+00-2.27309E+01-4.44473E+01



 n o d a l   p r i n t   o u t   f o r   t i m e  s t e p   24003                              ( at time 1.1999799E+01 )

 nodal point  x-rot      y-rot       z-rot       x-rot vel   y-rot vel   z-rot vel   x-rot acc   y-rot acc   z-rot acc
    22626 -3.80505E-02 3.68129E-04-1.08371E-04-1.03858E-02 2.36868E-04 1.21172E-04-2.11003E-04 1.36615E-04 6.62237E-05



 n o d a l   p r i n t   o u t   f o r   t i m e  s t e p   24203                              ( at time 1.2099789E+01 )

 nodal point  x-disp     y-disp      z-disp      x-vel       y-vel       z-vel      x-accl      y-accl      z-accl      x-coor      y-coor      z-coor
    22626  2.81265E-02 5.59790E+00 6.20332E-01 1.37897E-02 1.38216E+00 8.76712E-01 1.66022E-03 3.56484E-02 3.52639E-01 4.68750E+00-2.25929E+01-4.43614E+01



 n o d a l   p r i n t   o u t   f o r   t i m e  s t e p   24203                              ( at time 1.2099789E+01 )

 nodal point  x-rot      y-rot       z-rot       x-rot vel   y-rot vel   z-rot vel   x-rot acc   y-rot acc   z-rot acc
    22626 -3.90903E-02 3.91155E-04-9.69513E-05-1.04052E-02 2.36724E-04 1.29117E-04-1.94256E-04-1.43656E-06 7.94579E-05



 n o d a l   p r i n t   o u t   f o r   t i m e  s t e p   24403                              ( at time 1.2199779E+01 )

 nodal point  x-disp     y-disp      z-disp      x-vel       y-vel       z-vel      x-accl      y-accl      z-accl      x-coor      y-coor      z-coor
    22626  2.95227E-02 5.73623E+00 7.09860E-01 1.45594E-02 1.38412E+00 9.13473E-01 7.69783E-03 1.95771E-02 3.67650E-01 4.68890E+00-2.24546E+01-4.42719E+01



 n o d a l   p r i n t   o u t   f o r   t i m e  s t e p   24403                              ( at time 1.2199779E+01 )

 nodal point  x-rot      y-rot       z-rot       x-rot vel   y-rot vel   z-rot vel   x-rot acc   y-rot acc   z-rot acc
    22626 -4.01322E-02 4.15335E-04-8.37828E-05-1.04090E-02 2.56311E-04 1.41255E-04-3.80666E-05 1.95890E-04 1.21394E-04



 n o d a l   p r i n t   o u t   f o r   t i m e  s t e p   24603                              ( at time 1.2299769E+01 )

 nodal point  x-disp     y-disp      z-disp      x-vel       y-vel       z-vel      x-accl      y-accl      z-accl      x-coor      y-coor      z-coor
    22626  3.09812E-02 5.87481E+00 8.02920E-01 1.41028E-02 1.38714E+00 9.48056E-01-4.56674E-03 3.02405E-02 3.45863E-01 4.69036E+00-2.23160E+01-4.41788E+01



 n o d a l   p r i n t   o u t   f o r   t i m e  s t e p   24603                              ( at time 1.2299769E+01 )

 nodal point  x-rot      y-rot       z-rot       x-rot vel   y-rot vel   z-rot vel   x-rot acc   y-rot acc   z-rot acc
    22626 -4.11745E-02 4.41274E-04-6.98815E-05-1.04284E-02 2.52381E-04 1.40688E-04-1.93753E-04-3.93131E-05-5.67480E-06



 n o d a l   p r i n t   o u t   f o r   t i m e  s t e p   24803                              ( at time 1.2399759E+01 )

 nodal point  x-disp     y-disp      z-disp      x-vel       y-vel       z-vel      x-accl      y-accl      z-accl      x-coor      y-coor      z-coor
    22626  3.23983E-02 6.01361E+00 8.99575E-01 1.48635E-02 1.38908E+00 9.84432E-01 7.60717E-03 1.94021E-02 3.63797E-01 4.69177E+00-2.21772E+01-4.40821E+01



 n o d a l   p r i n t   o u t   f o r   t i m e  s t e p   24803                              ( at time 1.2399759E+01 )

 nodal point  x-rot      y-rot       z-rot       x-rot vel   y-rot vel   z-rot vel   x-rot acc   y-rot acc   z-rot acc
    22626 -4.22186E-02 4.66640E-04-5.54731E-05-1.04524E-02 2.61188E-04 1.46930E-04-2.39784E-04 8.80858E-05 6.24275E-05



 n o d a l   p r i n t   o u t   f o r   t i m e  s t e p   25003                              ( at time 1.2499749E+01 )

 nodal point  x-disp     y-disp      z-disp      x-vel       y-vel       z-vel      x-accl      y-accl      z-accl      x-coor      y-coor      z-coor
    22626  3.38891E-02 6.15263E+00 9.99776E-01 1.47853E-02 1.39095E+00 1.01954E+00-7.82073E-04 1.86808E-02 3.51148E-01 4.69326E+00-2.20382E+01-4.39819E+01



 n o d a l   p r i n t   o u t   f o r   t i m e  s t e p   25003                              ( at time 1.2499749E+01 )

 nodal point  x-rot      y-rot       z-rot       x-rot vel   y-rot vel   z-rot vel   x-rot acc   y-rot acc   z-rot acc
    22626 -4.32636E-02 4.94124E-04-3.96488E-05-1.04498E-02 2.80779E-04 1.60514E-04 2.55488E-05 1.95924E-04 1.35851E-04



 n o d a l   p r i n t   o u t   f o r   t i m e  s t e p   25203                              ( at time 1.2599739E+01 )

 nodal point  x-disp     y-disp      z-disp      x-vel       y-vel       z-vel      x-accl      y-accl      z-accl      x-coor      y-coor      z-coor
    22626  3.53480E-02 6.29178E+00 1.10357E+00 1.37934E-02 1.39210E+00 1.05641E+00-9.91921E-03 1.14858E-02 3.68681E-01 4.69472E+00-2.18990E+01-4.38782E+01



 n o d a l   p r i n t   o u t   f o r   t i m e  s t e p   25203                              ( at time 1.2599739E+01 )

 nodal point  x-rot      y-rot       z-rot       x-rot vel   y-rot vel   z-rot vel   x-rot acc   y-rot acc   z-rot acc
    22626 -4.43085E-02 5.21274E-04-2.42095E-05-1.04590E-02 2.72432E-04 1.58489E-04-9.19774E-05-8.34730E-05-2.02526E-05



 n o d a l   p r i n t   o u t   f o r   t i m e  s t e p   25403                              ( at time 1.2699729E+01 )

 nodal point  x-disp     y-disp      z-disp      x-vel       y-vel       z-vel      x-accl      y-accl      z-accl      x-coor      y-coor      z-coor
    22626  3.68054E-02 6.43100E+00 1.21102E+00 1.55802E-02 1.39289E+00 1.09180E+00 1.78692E-02 7.85669E-03 3.53949E-01 4.69618E+00-2.17598E+01-4.37707E+01



 n o d a l   p r i n t   o u t   f o r   t i m e  s t e p   25403                              ( at time 1.2699729E+01 )

 nodal point  x-rot      y-rot       z-rot       x-rot vel   y-rot vel   z-rot vel   x-rot acc   y-rot acc   z-rot acc
    22626 -4.53544E-02 5.48933E-04-7.96619E-06-1.04594E-02 2.93089E-04 1.72779E-04-4.02372E-06 2.06592E-04 1.42919E-04



 n o d a l   p r i n t   o u t   f o r   t i m e  s t e p   25603                              ( at time 1.2799719E+01 )

 nodal point  x-disp     y-disp      z-disp      x-vel       y-vel       z-vel      x-accl      y-accl      z-accl      x-coor      y-coor      z-coor
    22626  3.83036E-02 6.57034E+00 1.32194E+00 1.39325E-02 1.39339E+00 1.12766E+00-1.64786E-02 5.04068E-03 3.58657E-01 4.69768E+00-2.16205E+01-4.36598E+01



 n o d a l   p r i n t   o u t   f o r   t i m e  s t e p   25603                              ( at time 1.2799719E+01 )

 nodal point  x-rot      y-rot       z-rot       x-rot vel   y-rot vel   z-rot vel   x-rot acc   y-rot acc   z-rot acc
    22626 -4.64012E-02 5.77727E-04 9.07162E-06-1.04724E-02 2.79273E-04 1.50996E-04-1.29243E-04-1.38181E-04-2.17858E-04



 n o d a l   p r i n t   o u t   f o r   t i m e  s t e p   25803                              ( at time 1.2899709E+01 )

 nodal point  x-disp     y-disp      z-disp      x-vel       y-vel       z-vel      x-accl      y-accl      z-accl      x-coor      y-coor      z-coor
    22626  3.96768E-02 6.70958E+00 1.43660E+00 1.36996E-02 1.39266E+00 1.16500E+00-2.32932E-03-7.30231E-03 3.73417E-01 4.69905E+00-2.14813E+01-4.35451E+01



 n o d a l   p r i n t   o u t   f o r   t i m e  s t e p   25803                              ( at time 1.2899709E+01 )

 nodal point  x-rot      y-rot       z-rot       x-rot vel   y-rot vel   z-rot vel   x-rot acc   y-rot acc   z-rot acc
    22626 -4.74493E-02 6.05111E-04 2.34888E-05-1.05010E-02 2.74850E-04 1.50737E-04-2.86215E-04-4.42257E-05-2.58250E-06



 n o d a l   p r i n t   o u t   f o r   t i m e  s t e p   26003                              ( at time 1.2999699E+01 )

 nodal point  x-disp     y-disp      z-disp      x-vel       y-vel       z-vel      x-accl      y-accl      z-accl      x-coor      y-coor      z-coor
    22626  4.11442E-02 6.84883E+00 1.55481E+00 1.49833E-02 1.39293E+00 1.19891E+00 1.28386E-02 2.72659E-03 3.39174E-01 4.70052E+00-2.13420E+01-4.34269E+01



 n o d a l   p r i n t   o u t   f o r   t i m e  s t e p   26003                              ( at time 1.2999699E+01 )

 nodal point  x-rot      y-rot       z-rot       x-rot vel   y-rot vel   z-rot vel   x-rot acc   y-rot acc   z-rot acc
    22626 -4.84992E-02 6.33258E-04 4.04137E-05-1.05047E-02 2.90500E-04 1.76934E-04-3.76013E-05 1.56507E-04 2.61990E-04



 n o d a l   p r i n t   o u t   f o r   t i m e  s t e p   26203                              ( at time 1.3099689E+01 )

 nodal point  x-disp     y-disp      z-disp      x-vel       y-vel       z-vel      x-accl      y-accl      z-accl      x-coor      y-coor      z-coor
    22626  4.25594E-02 6.98808E+00 1.67650E+00 1.29392E-02 1.39186E+00 1.23548E+00-2.04426E-02-1.07705E-02 3.65696E-01 4.70193E+00-2.12027E+01-4.33052E+01



 n o d a l   p r i n t   o u t   f o r   t i m e  s t e p   26203                              ( at time 1.3099689E+01 )

 nodal point  x-rot      y-rot       z-rot       x-rot vel   y-rot vel   z-rot vel   x-rot acc   y-rot acc   z-rot acc
    22626 -4.95499E-02 6.61575E-04 5.58551E-05-1.05072E-02 2.65914E-04 1.22922E-04-2.44031E-05-2.45878E-04-5.40172E-04



 n o d a l   p r i n t   o u t   f o r   t i m e  s t e p   26403                              ( at time 1.3199679E+01 )

 nodal point  x-disp     y-disp      z-disp      x-vel       y-vel       z-vel      x-accl      y-accl      z-accl      x-coor      y-coor      z-coor
    22626  4.38282E-02 7.12718E+00 1.80183E+00 1.33144E-02 1.39154E+00 1.27184E+00 3.75195E-03-3.12476E-03 3.63595E-01 4.70320E+00-2.10636E+01-4.31799E+01



 n o d a l   p r i n t   o u t   f o r   t i m e  s t e p   26403                              ( at time 1.3199679E+01 )

 nodal point  x-rot      y-rot       z-rot       x-rot vel   y-rot vel   z-rot vel   x-rot acc   y-rot acc   z-rot acc
    22626 -5.06027E-02 6.87816E-04 6.86803E-05-1.05401E-02 2.60320E-04 1.35172E-04-3.29234E-04-5.59465E-05 1.22507E-04



 n o d a l   p r i n t   o u t   f o r   t i m e  s t e p   26603                              ( at time 1.3299669E+01 )

 nodal point  x-disp     y-disp      z-disp      x-vel       y-vel       z-vel      x-accl      y-accl      z-accl      x-coor      y-coor      z-coor
    22626  4.51550E-02 7.26628E+00 1.93069E+00 1.36713E-02 1.39146E+00 1.30548E+00 3.56975E-03-8.76277E-04 3.36465E-01 4.70453E+00-2.09245E+01-4.30510E+01



 n o d a l   p r i n t   o u t   f o r   t i m e  s t e p   26603                              ( at time 1.3299669E+01 )

 nodal point  x-rot      y-rot       z-rot       x-rot vel   y-rot vel   z-rot vel   x-rot acc   y-rot acc   z-rot acc
    22626 -5.16585E-02 7.15489E-04 8.48051E-05-1.05619E-02 2.92834E-04 1.63113E-04-2.17858E-04 3.25177E-04 2.79440E-04



 n o d a l   p r i n t   o u t   f o r   t i m e  s t e p   26803                              ( at time 1.3399659E+01 )

 nodal point  x-disp     y-disp      z-disp      x-vel       y-vel       z-vel      x-accl      y-accl      z-accl      x-coor      y-coor      z-coor
    22626  4.64689E-02 7.40533E+00 2.06290E+00 1.13462E-02 1.38923E+00 1.33899E+00-2.32538E-02-2.22729E-02 3.35104E-01 4.70584E+00-2.07855E+01-4.29188E+01



 n o d a l   p r i n t   o u t   f o r   t i m e  s t e p   26803                              ( at time 1.3399659E+01 )

 nodal point  x-rot      y-rot       z-rot       x-rot vel   y-rot vel   z-rot vel   x-rot acc   y-rot acc   z-rot acc
    22626 -5.27141E-02 7.44152E-04 9.80283E-05-1.05813E-02 2.52313E-04 9.75558E-05-1.94564E-04-4.05253E-04-6.55637E-04



 n o d a l   p r i n t   o u t   f o r   t i m e  s t e p   27003                              ( at time 1.3499649E+01 )

 nodal point  x-disp     y-disp      z-disp      x-vel       y-vel       z-vel      x-accl      y-accl      z-accl      x-coor      y-coor      z-coor
    22626  4.75572E-02 7.54421E+00 2.19872E+00 1.04807E-02 1.38855E+00 1.37616E+00-8.65594E-03-6.80158E-03 3.71737E-01 4.70693E+00-2.06466E+01-4.27830E+01



 n o d a l   p r i n t   o u t   f o r   t i m e  s t e p   27003                              ( at time 1.3499649E+01 )

 nodal point  x-rot      y-rot       z-rot       x-rot vel   y-rot vel   z-rot vel   x-rot acc   y-rot acc   z-rot acc
    22626 -5.37730E-02 7.67557E-04 1.08346E-04-1.06344E-02 2.38940E-04 1.06116E-04-5.31019E-04-1.33743E-04 8.56099E-05



 n o d a l   p r i n t   o u t   f o r   t i m e  s t e p   27203                              ( at time 1.3599639E+01 )

 nodal point  x-disp     y-disp      z-disp      x-vel       y-vel       z-vel      x-accl      y-accl      z-accl      x-coor      y-coor      z-coor
    22626  4.85792E-02 7.68303E+00 2.33801E+00 1.18669E-02 1.38822E+00 1.40797E+00 1.38631E-02-3.31912E-03 3.18215E-01 4.70795E+00-2.05078E+01-4.26437E+01



 n o d a l   p r i n t   o u t   f o r   t i m e  s t e p   27203                              ( at time 1.3599639E+01 )

 nodal point  x-rot      y-rot       z-rot       x-rot vel   y-rot vel   z-rot vel   x-rot acc   y-rot acc   z-rot acc
    22626 -5.48350E-02 7.94135E-04 1.20478E-04-1.06377E-02 2.81407E-04 1.03226E-04-3.29349E-05 4.24708E-04-2.89025E-05



 n o d a l   p r i n t   o u t   f o r   t i m e  s t e p   27403                              ( at time 1.3699629E+01 )

 nodal point  x-disp     y-disp      z-disp      x-vel       y-vel       z-vel      x-accl      y-accl      z-accl      x-coor      y-coor      z-coor
    22626  4.97691E-02 7.82177E+00 2.48035E+00 9.30591E-03 1.38737E+00 1.44012E+00-2.56121E-02-8.42656E-03 3.21533E-01 4.70914E+00-2.03691E+01-4.25014E+01



 n o d a l   p r i n t   o u t   f o r   t i m e  s t e p   27403                              ( at time 1.3699629E+01 )

 nodal point  x-rot      y-rot       z-rot       x-rot vel   y-rot vel   z-rot vel   x-rot acc   y-rot acc   z-rot acc
    22626 -5.58976E-02 8.20575E-04 1.30117E-04-1.06397E-02 2.13519E-04 7.19679E-05-1.92524E-05-6.78951E-04-3.12612E-04



 n o d a l   p r i n t   o u t   f o r   t i m e  s t e p   27603                              ( at time 1.3799619E+01 )

 nodal point  x-disp     y-disp      z-disp      x-vel       y-vel       z-vel      x-accl      y-accl      z-accl      x-coor      y-coor      z-coor
    22626  5.05333E-02 7.96036E+00 2.62616E+00 6.65612E-03 1.38501E+00 1.47597E+00-2.65006E-02-2.36070E-02 3.58474E-01 4.70991E+00-2.02305E+01-4.23556E+01



 n o d a l   p r i n t   o u t   f o r   t i m e  s t e p   27603                              ( at time 1.3799619E+01 )

 nodal point  x-rot      y-rot       z-rot       x-rot vel   y-rot vel   z-rot vel   x-rot acc   y-rot acc   z-rot acc
    22626 -5.69631E-02 8.39589E-04 1.34199E-04-1.06786E-02 1.93466E-04 2.29203E-05-3.89341E-04-2.00550E-04-4.90525E-04



 n o d a l   p r i n t   o u t   f o r   t i m e  s t e p   27803                              ( at time 1.3899609E+01 )

 nodal point  x-disp     y-disp      z-disp      x-vel       y-vel       z-vel      x-accl      y-accl      z-accl      x-coor      y-coor      z-coor
    22626  5.11297E-02 8.09880E+00 2.77529E+00 7.44542E-03 1.38522E+00 1.50583E+00 7.89383E-03 2.08160E-03 2.98648E-01 4.71050E+00-2.00920E+01-4.22064E+01



 n o d a l   p r i n t   o u t   f o r   t i m e  s t e p   27803                              ( at time 1.3899609E+01 )

 nodal point  x-rot      y-rot       z-rot       x-rot vel   y-rot vel   z-rot vel   x-rot acc   y-rot acc   z-rot acc
    22626 -5.80334E-02 8.59753E-04 1.35452E-04-1.07312E-02 2.27773E-04 8.72541E-06-5.25943E-04 3.43107E-04-1.41964E-04



 n o d a l   p r i n t   o u t   f o r   t i m e  s t e p   28003                              ( at time 1.3999599E+01 )

 nodal point  x-disp     y-disp      z-disp      x-vel       y-vel       z-vel      x-accl      y-accl      z-accl      x-coor      y-coor      z-coor
    22626  5.19512E-02 8.23736E+00 2.92724E+00 6.91597E-03 1.38518E+00 1.53433E+00-5.29506E-03-4.24428E-04 2.85082E-01 4.71133E+00-1.99535E+01-4.20545E+01



 n o d a l   p r i n t   o u t   f o r   t i m e  s t e p   28003                              ( at time 1.3999599E+01 )

 nodal point  x-rot      y-rot       z-rot       x-rot vel   y-rot vel   z-rot vel   x-rot acc   y-rot acc   z-rot acc
    22626 -5.91052E-02 8.81419E-04 1.38196E-04-1.07056E-02 1.84956E-04 2.77865E-05 2.55394E-04-4.28214E-04 1.90630E-04



 n o d a l   p r i n t   o u t   f o r   t i m e  s t e p   28203                              ( at time 1.4099589E+01 )

 nodal point  x-disp     y-disp      z-disp      x-vel       y-vel       z-vel      x-accl      y-accl      z-accl      x-coor      y-coor      z-coor
    22626  5.25038E-02 8.37582E+00 3.08219E+00 2.33734E-03 1.38406E+00 1.56485E+00-4.57905E-02-1.11757E-02 3.05157E-01 4.71188E+00-1.98150E+01-4.18995E+01



 n o d a l   p r i n t   o u t   f o r   t i m e  s t e p   28203                              ( at time 1.4099589E+01 )

 nodal point  x-rot      y-rot       z-rot       x-rot vel   y-rot vel   z-rot vel   x-rot acc   y-rot acc   z-rot acc
    22626 -6.01761E-02 8.96698E-04 1.34307E-04-1.07326E-02 1.08915E-04-9.65612E-05-2.69494E-04-7.60479E-04-1.24359E-03
