 LSTC 50th% Full_FE H-III Dummy (Beta Version, February 17, 2019)        
                    ls-dyna smp s R16 R16.0_619_d222963 date 03/18/2025

{BEGIN LEGEND}
 Entity #        Title
        1     Upper_Neck_Force_INJURY                                              
{END LEGEND}



 line#1  section#     time        x-force     y-force     z-force    magnitude
 line#2  resultant  moments       x-moment    y-moment    z-moment   magnitude
 line#3  centroids                x           y           z            area  
           1    0.00000E+00     0.0000E+00  0.0000E+00  0.0000E+00  0.0000E+00
ac ID =   33377                 0.0000E+00  0.0000E+00  0.0000E+00  0.0000E+00
                               -3.7437E-01  1.0501E+01 -4.6940E+01  0.0000E+00

           1    1.00490E-01     1.3626E-04 -4.9880E-03  2.5983E-01  2.5988E-01
ac ID =   33377                 4.2544E-01 -1.2521E+00 -2.7100E-02  1.3227E+00
                               -3.7387E-01  1.0590E+01 -4.6886E+01  2.5147E+03

           1    2.00480E-01    -4.4289E-02  6.1226E-04  4.4118E-01  4.4340E-01
ac ID =   33377                 3.0990E-01 -1.5970E+00  2.2302E-02  1.6270E+00
                               -3.7386E-01  1.0591E+01 -4.6888E+01  2.5147E+03

           1    3.00470E-01     1.4828E-02 -3.1141E-03  2.1732E-01  2.1784E-01
ac ID =   33377                 2.2070E-02 -3.3646E-01  6.5431E-02  3.4347E-01
                               -3.7382E-01  1.0591E+01 -4.6889E+01  2.5147E+03

           1    4.00460E-01     2.9779E-03  1.0644E-02  8.7724E-02  8.8418E-02
ac ID =   33377                -4.9015E-01 -9.4402E-01  2.6503E-03  1.0637E+00
                               -3.7384E-01  1.0592E+01 -4.6890E+01  2.5147E+03

           1    5.00450E-01    -4.0561E-02  4.2237E-03  1.6172E-01  1.6678E-01
ac ID =   33377                -3.9818E-01 -1.5084E+00 -1.1016E-01  1.5640E+00
                               -3.7385E-01  1.0594E+01 -4.6893E+01  2.5147E+03

           1    6.00440E-01    -1.0618E-02  4.0387E-03  3.4307E-01  3.4326E-01
ac ID =   33377                 9.0544E-02 -1.3218E+00 -4.0566E-02  1.3256E+00
                               -3.7385E-01  1.0595E+01 -4.6897E+01  2.5147E+03

           1    7.00430E-01     2.9299E-03 -5.5175E-03  2.9436E-01  2.9442E-01
ac ID =   33377                 1.3453E-01 -5.0125E-01  7.8378E-02  5.2487E-01
                               -3.7389E-01  1.0597E+01 -4.6901E+01  2.5147E+03

           1    8.00420E-01    -3.1056E-02 -1.0223E-03  1.0042E-01  1.0512E-01
ac ID =   33377                 8.5253E-02 -1.0506E+00  5.2753E-02  1.0554E+00
                               -3.7394E-01  1.0599E+01 -4.6905E+01  2.5147E+03

           1    9.00410E-01    -3.9095E-02  9.9124E-04  6.2397E-02  7.3639E-02
ac ID =   33377                 8.9797E-02 -1.0736E+00 -3.1117E-03  1.0774E+00
                               -3.7399E-01  1.0601E+01 -4.6909E+01  2.5147E+03

           1    1.00040E+00     1.4879E-02 -3.4335E-03  2.2082E-01  2.2135E-01
ac ID =   33377                 3.6813E-01 -2.8686E-01 -6.0767E-02  4.7064E-01
                               -3.7400E-01  1.0604E+01 -4.6915E+01  2.5147E+03

           1    1.10039E+00     1.1899E-04 -3.0935E-03  2.7085E-01  2.7087E-01
ac ID =   33377                 3.4428E-01 -8.8269E-01 -5.4485E-02  9.4902E-01
                               -3.7401E-01  1.0607E+01 -4.6921E+01  2.5147E+03

           1    1.20038E+00    -3.2430E-02 -1.3567E-04  1.2944E-01  1.3344E-01
ac ID =   33377                -1.5319E-01 -1.1832E+00  1.2823E-02  1.1931E+00
                               -3.7403E-01  1.0610E+01 -4.6927E+01  2.5147E+03

           1    1.30037E+00    -1.0474E-02  4.9744E-03  7.4579E-02  7.5475E-02
ac ID =   33377                -3.0055E-01 -8.8218E-01  1.4523E-02  9.3209E-01
                               -3.7407E-01  1.0612E+01 -4.6933E+01  2.5147E+03

           1    1.40036E+00     7.6916E-03  3.5919E-03  1.7357E-01  1.7378E-01
ac ID =   33377                -2.9496E-01 -8.3808E-01  3.0281E-02  8.8898E-01
                               -3.7409E-01  1.0616E+01 -4.6941E+01  2.5147E+03

           1    1.50035E+00    -2.6906E-02  1.2696E-03  3.2815E-01  3.2925E-01
ac ID =   33377                -1.3638E-02 -1.5831E+00 -4.1381E-02  1.5837E+00
                               -3.7413E-01  1.0620E+01 -4.6949E+01  2.5147E+03

           1    1.60034E+00    -1.9477E-02 -2.3592E-03  2.2131E-01  2.2218E-01
ac ID =   33377                -2.0595E-02 -1.3695E+00 -9.4936E-03  1.3697E+00
                               -3.7420E-01  1.0624E+01 -4.6957E+01  2.5147E+03

           1    1.70033E+00    -3.1217E-03 -3.8539E-04  5.8295E-02  5.8379E-02
ac ID =   33377                -4.3414E-02 -6.6659E-01  8.8560E-02  6.7385E-01
                               -3.7427E-01  1.0627E+01 -4.6965E+01  2.5147E+03

           1    1.80032E+00    -2.0058E-02  8.7658E-04  7.7248E-02  7.9814E-02
ac ID =   33377                 8.4368E-02 -1.1178E+00  1.2523E-01  1.1279E+00
                               -3.7434E-01  1.0632E+01 -4.6974E+01  2.5147E+03

           1    1.90031E+00    -7.7476E-03 -2.5873E-03  1.9206E-01  1.9224E-01
ac ID =   33377                 2.7206E-01 -8.2337E-01 -7.0150E-02  8.6999E-01
                               -3.7439E-01  1.0636E+01 -4.6984E+01  2.5147E+03

           1    2.00030E+00    -2.0031E-03 -4.4129E-03  1.5594E-01  1.5602E-01
ac ID =   33377                 2.0351E-01 -4.4668E-01 -1.4415E-01  5.1158E-01
                               -3.7444E-01  1.0641E+01 -4.6993E+01  2.5147E+03

           1    2.10029E+00    -2.5228E-02  2.5172E-03  3.2500E-03  2.5561E-02
ac ID =   33377                -7.5766E-02 -6.9403E-01  3.8409E-02  6.9921E-01
                               -3.7450E-01  1.0645E+01 -4.7003E+01  2.5147E+03

           1    2.20028E+00    -1.3026E-02  5.3059E-03  3.2140E-03  1.4428E-02
ac ID =   33377                -2.3177E-01 -6.6000E-01  2.3666E-02  6.9991E-01
                               -3.7456E-01  1.0650E+01 -4.7013E+01  2.5147E+03

           1    2.30027E+00     1.2209E-03  4.6392E-03  1.4888E-01  1.4896E-01
ac ID =   33377                -1.5355E-01 -8.1105E-01 -6.8789E-02  8.2832E-01
                               -3.7462E-01  1.0655E+01 -4.7024E+01  2.5147E+03

           1    2.40026E+00    -1.7215E-02 -1.7080E-03  1.8880E-01  1.8959E-01
ac ID =   33377                -1.5235E-01 -1.1867E+00  7.7304E-02  1.1989E+00
                               -3.7469E-01  1.0661E+01 -4.7035E+01  2.5147E+03

           1    2.50025E+00    -1.8404E-02  1.1549E-03  1.4558E-04  1.8441E-02
ac ID =   33377                -1.9324E-01 -8.9323E-01  1.3338E-01  9.2357E-01
                               -3.7479E-01  1.0665E+01 -4.7045E+01  2.5147E+03

           1    2.60024E+00    -6.8680E-03  5.8083E-03 -7.6444E-02  7.6971E-02
ac ID =   33377                -2.0819E-01 -1.8487E-01  3.5423E-02  2.8067E-01
                               -3.7490E-01  1.0671E+01 -4.7056E+01  2.5147E+03

           1    2.70023E+00    -1.1916E-02 -1.6170E-03  9.6994E-03  1.5449E-02
ac ID =   33377                 3.2938E-02 -2.2199E-01  3.3740E-02  2.2694E-01
                               -3.7501E-01  1.0676E+01 -4.7068E+01  2.5147E+03

           1    2.80022E+00    -5.2564E-03 -4.6460E-03  6.3652E-02  6.4038E-02
ac ID =   33377                 3.6880E-01 -1.4397E-01 -1.7801E-02  3.9631E-01
                               -3.7510E-01  1.0682E+01 -4.7079E+01  2.5147E+03

           1    2.90021E+00     5.1015E-03 -2.6892E-03 -1.0079E-02  1.1612E-02
ac ID =   33377                 1.4595E-01  3.1006E-01 -7.9025E-02  3.5169E-01
                               -3.7520E-01  1.0687E+01 -4.7090E+01  2.5147E+03

           1    3.00020E+00    -7.4540E-03  2.0587E-03 -8.8801E-02  8.9137E-02
ac ID =   33377                -3.5455E-02  7.2640E-02 -5.2633E-02  9.6457E-02
                               -3.7530E-01  1.0692E+01 -4.7101E+01  2.5147E+03

           1    3.10019E+00    -2.9116E-03  3.6379E-04 -8.7005E-03  9.1819E-03
ac ID =   33377                 3.7378E-02 -2.4723E-01 -3.1197E-02  2.5198E-01
                               -3.7538E-01  1.0698E+01 -4.7113E+01  2.5147E+03

           1    3.20018E+00     3.5863E-03  2.0749E-03  6.9400E-02  6.9523E-02
ac ID =   33377                -2.0369E-02 -3.4196E-01  2.0156E-02  3.4315E-01
                               -3.7545E-01  1.0703E+01 -4.7125E+01  2.5147E+03

           1    3.30017E+00     3.8482E-04  9.1189E-04  1.3634E-02  1.3670E-02
ac ID =   33377                -2.2762E-01 -3.6664E-01  1.1339E-01  4.4620E-01
                               -3.7554E-01  1.0708E+01 -4.7137E+01  2.5147E+03

           1    3.40016E+00    -2.4706E-03  3.0073E-03 -1.0112E-01  1.0120E-01
ac ID =   33377                -3.0756E-01 -3.6181E-02  1.1557E-01  3.3054E-01
                               -3.7565E-01  1.0713E+01 -4.7148E+01  2.5147E+03

           1    3.50015E+00    -4.9350E-03  3.1287E-03 -1.3167E-01  1.3180E-01
ac ID =   33377                -1.5458E-01  2.7324E-01  4.2233E-02  3.1677E-01
                               -3.7576E-01  1.0719E+01 -4.7160E+01  2.5147E+03

           1    3.60014E+00     5.6927E-03 -3.0433E-03 -5.3074E-02  5.3466E-02
ac ID =   33377                 1.1560E-01  7.3983E-01 -9.8177E-02  7.5522E-01
                               -3.7586E-01  1.0724E+01 -4.7172E+01  2.5147E+03

           1    3.70013E+00     1.0691E-02 -4.9003E-03 -4.6307E-02  4.7777E-02
ac ID =   33377                 3.1029E-01  8.6369E-01 -1.6696E-01  9.3280E-01
                               -3.7596E-01  1.0729E+01 -4.7183E+01  2.5147E+03

           1    3.80012E+00     7.6249E-03 -2.8051E-03 -1.2917E-01  1.2943E-01
ac ID =   33377                 2.5185E-01  1.0793E+00 -6.5663E-02  1.1102E+00
                               -3.7605E-01  1.0734E+01 -4.7195E+01  2.5147E+03

           1    3.90011E+00     8.5534E-03 -4.0187E-04 -1.8947E-01  1.8967E-01
ac ID =   33377                 1.6777E-01  1.1337E+00 -5.5419E-02  1.1474E+00
                               -3.7613E-01  1.0739E+01 -4.7206E+01  2.5147E+03

           1    4.00010E+00     2.5944E-03 -9.2642E-04 -1.3568E-01  1.3570E-01
ac ID =   33377                -2.5697E-02  7.1692E-01 -2.0310E-02  7.1767E-01
                               -3.7618E-01  1.0744E+01 -4.7217E+01  2.5147E+03

           1    4.10009E+00     5.4387E-03 -2.0420E-04 -9.9888E-02  1.0004E-01
ac ID =   33377                -6.9056E-02  5.7353E-01  8.1215E-03  5.7773E-01
                               -3.7623E-01  1.0748E+01 -4.7228E+01  2.5147E+03

           1    4.20008E+00     3.3144E-04  2.9297E-03 -1.4484E-01  1.4487E-01
ac ID =   33377                -2.2749E-01  5.6550E-01  9.9055E-02  6.1754E-01
                               -3.7629E-01  1.0753E+01 -4.7239E+01  2.5147E+03

           1    4.30007E+00     3.3687E-03  4.7923E-03 -2.4315E-01  2.4322E-01
ac ID =   33377                -3.4198E-01  9.7341E-01  7.1361E-02  1.0342E+00
                               -3.7637E-01  1.0757E+01 -4.7249E+01  2.5147E+03

           1    4.40006E+00     1.9512E-02  3.9203E-03 -2.1697E-01  2.1788E-01
ac ID =   33377                -1.3381E-01  1.4035E+00  3.1076E-02  1.4102E+00
                               -3.7644E-01  1.0761E+01 -4.7259E+01  2.5147E+03

           1    4.50005E+00     1.6436E-02 -6.7459E-04 -1.3608E-01  1.3707E-01
ac ID =   33377                 1.8160E-01  1.1852E+00 -1.4947E-02  1.1991E+00
                               -3.7650E-01  1.0765E+01 -4.7270E+01  2.5147E+03

           1    4.60004E+00     2.3172E-02 -3.4257E-03 -1.8391E-01  1.8540E-01
ac ID =   33377                 2.5245E-01  1.4007E+00 -1.3720E-01  1.4299E+00
                               -3.7656E-01  1.0769E+01 -4.7279E+01  2.5147E+03

           1    4.70003E+00     2.5119E-02 -7.5728E-04 -2.6168E-01  2.6288E-01
ac ID =   33377                 1.9696E-01  1.4908E+00 -1.2216E-01  1.5087E+00
                               -3.7661E-01  1.0773E+01 -4.7289E+01  2.5147E+03

           1    4.80002E+00     2.7674E-02  2.9045E-04 -2.8737E-01  2.8870E-01
ac ID =   33377                 8.2393E-02  1.4280E+00 -9.6699E-03  1.4304E+00
                               -3.7664E-01  1.0778E+01 -4.7298E+01  2.5147E+03

           1    4.90001E+00     3.0668E-02  1.2117E-03 -2.3257E-01  2.3459E-01
ac ID =   33377                -1.6513E-02  1.5205E+00  9.1786E-03  1.5206E+00
                               -3.7666E-01  1.0782E+01 -4.7308E+01  2.5147E+03

           1    5.00000E+00     3.4371E-02  3.7328E-03 -2.2371E-01  2.2637E-01
ac ID =   33377                -3.0567E-01  1.4642E+00  7.6327E-02  1.4977E+00
                               -3.7666E-01  1.0787E+01 -4.7317E+01  2.5147E+03

           1    5.10049E+00     3.7912E-02  3.3868E-03 -3.0934E-01  3.1167E-01
ac ID =   33377                -3.2607E-01  1.6842E+00  6.1634E-02  1.7166E+00
                               -3.7668E-01  1.0793E+01 -4.7326E+01  2.5147E+03

           1    5.20048E+00     4.4941E-02  5.7056E-03 -3.4626E-01  3.4921E-01
ac ID =   33377                -3.6230E-01  1.9711E+00 -8.9359E-02  2.0061E+00
                               -3.7671E-01  1.0798E+01 -4.7336E+01  2.5147E+03

           1    5.30047E+00     5.4099E-02  8.8272E-03 -3.2960E-01  3.3413E-01
ac ID =   33377                -4.4198E-01  2.1278E+00  2.8204E-02  2.1734E+00
                               -3.7674E-01  1.0805E+01 -4.7345E+01  2.5147E+03

           1    5.40046E+00     5.8440E-02 -3.2362E-03 -3.1228E-01  3.1772E-01
ac ID =   33377                 1.3717E-01  2.2203E+00 -3.4327E-03  2.2245E+00
                               -3.7678E-01  1.0813E+01 -4.7354E+01  2.5147E+03

           1    5.50045E+00     6.8135E-02 -3.7595E-03 -4.0026E-01  4.0604E-01
ac ID =   33377                 1.1764E-01  2.5488E+00 -1.2729E-01  2.5547E+00
                               -3.7680E-01  1.0821E+01 -4.7363E+01  2.5147E+03

           1    5.60044E+00     6.5889E-02  1.0076E-03 -4.8749E-01  4.9192E-01
ac ID =   33377                -4.4110E-02  2.7882E+00 -1.6213E-01  2.7933E+00
                               -3.7683E-01  1.0830E+01 -4.7373E+01  2.5147E+03

           1    5.70043E+00     7.3424E-02  5.6941E-03 -4.9784E-01  5.0326E-01
ac ID =   33377                -1.6107E-02  2.8135E+00  6.5886E-02  2.8143E+00
                               -3.7686E-01  1.0840E+01 -4.7382E+01  2.5147E+03

           1    5.80042E+00     7.8880E-02 -2.5387E-03 -4.5670E-01  4.6347E-01
ac ID =   33377                 1.1134E-01  2.8337E+00  2.1946E-01  2.8444E+00
                               -3.7684E-01  1.0852E+01 -4.7392E+01  2.5147E+03

           1    5.90041E+00     8.6147E-02  1.3474E-03 -4.7144E-01  4.7925E-01
ac ID =   33377                -2.6579E-01  3.0228E+00  5.4414E-02  3.0349E+00
                               -3.7680E-01  1.0865E+01 -4.7402E+01  2.5147E+03

           1    6.00040E+00     9.2735E-02  1.1473E-02 -5.5026E-01  5.5814E-01
ac ID =   33377                -5.8939E-01  3.2391E+00  3.7957E-02  3.2925E+00
                               -3.7681E-01  1.0880E+01 -4.7412E+01  2.5147E+03

           1    6.10039E+00     9.4826E-02  6.3995E-03 -5.5093E-01  5.5906E-01
ac ID =   33377                -2.3460E-01  3.0943E+00  3.2041E-02  3.1034E+00
                               -3.7679E-01  1.0896E+01 -4.7422E+01  2.5147E+03

           1    6.20038E+00     1.0316E-01  3.8676E-03 -5.3821E-01  5.4802E-01
ac ID =   33377                -3.1378E-01  3.0753E+00 -8.4227E-02  3.0924E+00
                               -3.7673E-01  1.0914E+01 -4.7433E+01  2.5147E+03

           1    6.30037E+00     9.8865E-02  6.1126E-03 -5.6630E-01  5.7490E-01
ac ID =   33377                -3.9401E-01  3.0841E+00 -5.7965E-02  3.1097E+00
                               -3.7668E-01  1.0933E+01 -4.7444E+01  2.5147E+03

           1    6.40036E+00     1.1180E-01  1.8273E-03 -6.5396E-01  6.6345E-01
ac ID =   33377                -1.6072E-02  3.4777E+00  1.0335E-01  3.4792E+00
                               -3.7665E-01  1.0955E+01 -4.7456E+01  2.5147E+03

           1    6.50035E+00     1.1734E-01  4.0237E-03 -7.1226E-01  7.2187E-01
ac ID =   33377                -4.4051E-02  3.9706E+00  2.9715E-01  3.9820E+00
                               -3.7653E-01  1.0979E+01 -4.7468E+01  2.5147E+03

           1    6.60034E+00     1.2082E-01  1.4252E-03 -7.0546E-01  7.1573E-01
ac ID =   33377                -1.1768E-01  3.9998E+00  5.7932E-02  4.0020E+00
                               -3.7640E-01  1.1004E+01 -4.7481E+01  2.5147E+03

           1    6.70033E+00     1.2985E-01  5.3030E-03 -7.1317E-01  7.2492E-01
ac ID =   33377                -2.6815E-01  4.3361E+00 -1.2463E-01  4.3461E+00
                               -3.7625E-01  1.1032E+01 -4.7494E+01  2.5147E+03

           1    6.80032E+00     1.2352E-01  2.7335E-06 -7.5522E-01  7.6525E-01
ac ID =   33377                -2.1773E-01  4.2519E+00  8.4460E-02  4.2583E+00
                               -3.7601E-01  1.1062E+01 -4.7508E+01  2.5147E+03

           1    6.90031E+00     1.3820E-01  4.8200E-03 -8.2669E-01  8.3818E-01
ac ID =   33377                -4.2507E-01  4.5844E+00  2.0258E-01  4.6085E+00
                               -3.7579E-01  1.1095E+01 -4.7522E+01  2.5147E+03

           1    7.00030E+00     1.4060E-01  1.6304E-02 -8.4020E-01  8.5204E-01
ac ID =   33377                -6.4855E-01  4.6382E+00  1.1436E-01  4.6847E+00
                               -3.7559E-01  1.1130E+01 -4.7537E+01  2.5147E+03

           1    7.10029E+00     1.4241E-01 -4.1695E-04 -8.6241E-01  8.7409E-01
ac ID =   33377                -4.1366E-01  4.5737E+00 -1.1660E-01  4.5938E+00
                               -3.7530E-01  1.1167E+01 -4.7552E+01  2.5147E+03

           1    7.20028E+00     1.4176E-01 -4.9506E-03 -9.3666E-01  9.4734E-01
ac ID =   33377                -2.3181E-01  4.8846E+00 -1.7250E-01  4.8931E+00
                               -3.7504E-01  1.1207E+01 -4.7568E+01  2.5147E+03

           1    7.30027E+00     1.4566E-01  7.6877E-03 -1.0271E+00  1.0374E+00
ac ID =   33377                -3.4167E-01  5.2465E+00  1.3517E-01  5.2593E+00
                               -3.7482E-01  1.1249E+01 -4.7585E+01  2.5147E+03

           1    7.40026E+00     1.6593E-01  1.2345E-02 -1.0845E+00  1.0972E+00
ac ID =   33377                -1.7528E-01  5.9731E+00  4.3469E-01  5.9914E+00
                               -3.7459E-01  1.1294E+01 -4.7602E+01  2.5147E+03

           1    7.50025E+00     1.5799E-01 -1.9564E-03 -1.0825E+00  1.0939E+00
ac ID =   33377                -1.6537E-01  6.0132E+00  1.3105E-01  6.0169E+00
                               -3.7423E-01  1.1342E+01 -4.7619E+01  2.5147E+03

           1    7.60024E+00     1.6979E-01  9.0051E-03 -1.1194E+00  1.1323E+00
ac ID =   33377                -3.5768E-01  6.1478E+00 -3.1364E-01  6.1662E+00
                               -3.7382E-01  1.1392E+01 -4.7637E+01  2.5147E+03

           1    7.70023E+00     1.7726E-01  4.3014E-03 -1.1714E+00  1.1847E+00
ac ID =   33377                -4.1154E-01  6.2605E+00 -1.4880E-01  6.2758E+00
                               -3.7336E-01  1.1444E+01 -4.7655E+01  2.5147E+03

           1    7.80022E+00     1.7655E-01  1.2518E-02 -1.2216E+00  1.2343E+00
ac ID =   33377                -6.0137E-01  6.2009E+00  1.5009E-01  6.2318E+00
                               -3.7291E-01  1.1500E+01 -4.7674E+01  2.5147E+03

           1    7.90021E+00     1.8817E-01  5.2405E-03 -1.2549E+00  1.2689E+00
ac ID =   33377                -7.4321E-01  6.7060E+00 -4.3436E-02  6.7472E+00
                               -3.7242E-01  1.1558E+01 -4.7693E+01  2.5147E+03

           1    8.00020E+00     1.9307E-01  6.7622E-03 -1.3131E+00  1.3272E+00
ac ID =   33377                -8.0846E-01  6.9674E+00 -3.1651E-01  7.0213E+00
                               -3.7192E-01  1.1619E+01 -4.7713E+01  2.5147E+03

           1    8.10019E+00     2.0726E-01  7.9070E-03 -1.4107E+00  1.4258E+00
ac ID =   33377                -3.8257E-01  7.7156E+00 -2.3841E-01  7.7288E+00
                               -3.7145E-01  1.1683E+01 -4.7732E+01  2.5147E+03

           1    8.20018E+00     2.0880E-01  5.6199E-03 -1.4649E+00  1.4797E+00
ac ID =   33377                -3.5190E-01  7.9714E+00  1.3018E-01  7.9803E+00
                               -3.7092E-01  1.1749E+01 -4.7752E+01  2.5147E+03

           1    8.30017E+00     2.1475E-01 -1.3853E-03 -1.5230E+00  1.5381E+00
ac ID =   33377                -2.4991E-01  8.2457E+00  5.1400E-02  8.2496E+00
                               -3.7037E-01  1.1818E+01 -4.7773E+01  2.5147E+03

           1    8.40016E+00     2.2997E-01 -3.1866E-03 -1.5707E+00  1.5874E+00
ac ID =   33377                -2.8296E-01  8.7655E+00 -1.4642E-01  8.7712E+00
                               -3.6981E-01  1.1890E+01 -4.7793E+01  2.5147E+03

           1    8.50015E+00     2.2909E-01  2.5667E-03 -1.6287E+00  1.6447E+00
ac ID =   33377                -3.0935E-01  9.0385E+00  2.9472E-02  9.0438E+00
                               -3.6925E-01  1.1965E+01 -4.7814E+01  2.5147E+03

           1    8.60014E+00     2.3631E-01 -5.9333E-04 -1.7160E+00  1.7322E+00
ac ID =   33377                -4.6725E-01  9.4450E+00 -9.6840E-02  9.4571E+00
                               -3.6866E-01  1.2043E+01 -4.7835E+01  2.5147E+03

           1    8.70013E+00     2.3677E-01  1.0402E-02 -1.7776E+00  1.7933E+00
ac ID =   33377                -8.1321E-01  9.5809E+00 -5.6452E-02  9.6155E+00
                               -3.6808E-01  1.2123E+01 -4.7855E+01  2.5147E+03

           1    8.80012E+00     2.4923E-01  2.9537E-03 -1.8406E+00  1.8574E+00
ac ID =   33377                -6.9274E-01  1.0014E+01 -4.9854E-02  1.0038E+01
                               -3.6750E-01  1.2206E+01 -4.7876E+01  2.5147E+03

           1    8.90011E+00     2.5432E-01  3.8256E-03 -1.9129E+00  1.9297E+00
ac ID =   33377                -6.6330E-01  1.0353E+01  7.3988E-02  1.0374E+01
                               -3.6693E-01  1.2292E+01 -4.7896E+01  2.5147E+03

           1    9.00010E+00     2.6162E-01  4.9981E-03 -1.9933E+00  2.0104E+00
ac ID =   33377                -4.3105E-01  1.0808E+01  1.4088E-01  1.0818E+01
                               -3.6637E-01  1.2381E+01 -4.7916E+01  2.5147E+03

           1    9.10009E+00     2.8054E-01  6.6525E-03 -2.0532E+00  2.0723E+00
ac ID =   33377                -4.2663E-01  1.1513E+01  6.6832E-02  1.1521E+01
                               -3.6583E-01  1.2472E+01 -4.7935E+01  2.5147E+03

           1    9.20008E+00     2.7276E-01 -8.1132E-03 -2.1225E+00  2.1400E+00
ac ID =   33377                -1.4046E-01  1.1726E+01 -1.1776E-01  1.1727E+01
                               -3.6524E-01  1.2566E+01 -4.7954E+01  2.5147E+03

           1    9.30007E+00     2.8608E-01 -4.5555E-03 -2.1906E+00  2.2092E+00
ac ID =   33377                -1.2029E-01  1.2130E+01 -1.4913E-01  1.2132E+01
                               -3.6465E-01  1.2662E+01 -4.7973E+01  2.5147E+03

           1    9.40006E+00     2.8788E-01  1.3962E-02 -2.2506E+00  2.2690E+00
ac ID =   33377                -4.8601E-01  1.2255E+01  1.4927E-01  1.2265E+01
                               -3.6407E-01  1.2761E+01 -4.7991E+01  2.5147E+03

           1    9.50005E+00     2.9845E-01  9.3774E-04 -2.3304E+00  2.3494E+00
ac ID =   33377                -5.1941E-01  1.2977E+01  1.0313E-01  1.2988E+01
                               -3.6345E-01  1.2863E+01 -4.8008E+01  2.5147E+03

           1    9.60004E+00     3.0132E-01  1.1353E-03 -2.3871E+00  2.4060E+00
ac ID =   33377                -6.2816E-01  1.3435E+01 -2.0889E-01  1.3451E+01
                               -3.6281E-01  1.2967E+01 -4.8024E+01  2.5147E+03

           1    9.70003E+00     3.0416E-01  8.7192E-03 -2.4488E+00  2.4676E+00
ac ID =   33377                -8.4552E-01  1.3827E+01 -1.2595E-01  1.3854E+01
                               -3.6220E-01  1.3073E+01 -4.8040E+01  2.5147E+03

           1    9.80002E+00     3.1642E-01  7.6788E-03 -2.5060E+00  2.5259E+00
ac ID =   33377                -6.6521E-01  1.4474E+01  1.3981E-01  1.4490E+01
                               -3.6160E-01  1.3182E+01 -4.8054E+01  2.5147E+03

           1    9.90001E+00     3.3175E-01 -1.4877E-04 -2.5708E+00  2.5921E+00
ac ID =   33377                -4.9064E-01  1.4849E+01  3.1501E-01  1.4860E+01
                               -3.6098E-01  1.3293E+01 -4.8067E+01  2.5147E+03

           1    1.00005E+01     3.2469E-01  4.2041E-03 -2.6388E+00  2.6587E+00
ac ID =   33377                -3.8438E-01  1.5270E+01 -5.9891E-02  1.5275E+01
                               -3.6034E-01  1.3406E+01 -4.8079E+01  2.5147E+03

           1    1.01005E+01     3.4132E-01 -8.7406E-04 -2.7292E+00  2.7505E+00
ac ID =   33377                -4.8243E-01  1.6019E+01 -2.0717E-01  1.6027E+01
                               -3.5968E-01  1.3521E+01 -4.8089E+01  2.5147E+03

           1    1.02005E+01     3.4656E-01 -5.5409E-03 -2.8070E+00  2.8283E+00
ac ID =   33377                -1.5065E-01  1.6449E+01 -1.1870E-01  1.6450E+01
                               -3.5901E-01  1.3638E+01 -4.8098E+01  2.5147E+03

           1    1.03005E+01     3.5027E-01  9.5580E-03 -2.8633E+00  2.8847E+00
ac ID =   33377                -5.6981E-01  1.6884E+01  6.4174E-02  1.6893E+01
                               -3.5829E-01  1.3756E+01 -4.8104E+01  2.5147E+03

           1    1.04005E+01     3.5109E-01  5.6447E-03 -2.9278E+00  2.9488E+00
ac ID =   33377                -5.8606E-01  1.7158E+01 -2.1084E-02  1.7168E+01
                               -3.5756E-01  1.3876E+01 -4.8109E+01  2.5147E+03

           1    1.05004E+01     3.5653E-01 -4.9562E-04 -2.9795E+00  3.0008E+00
ac ID =   33377                -7.1950E-01  1.7563E+01 -3.9675E-02  1.7577E+01
                               -3.5679E-01  1.3998E+01 -4.8112E+01  2.5147E+03

           1    1.06004E+01     3.6749E-01  3.5891E-03 -2.9998E+00  3.0222E+00
ac ID =   33377                -7.1511E-01  1.7918E+01 -2.4132E-01  1.7933E+01
                               -3.5601E-01  1.4121E+01 -4.8113E+01  2.5147E+03

           1    1.07004E+01     3.7272E-01  5.7470E-03 -3.0575E+00  3.0802E+00
ac ID =   33377                -5.7267E-01  1.8242E+01 -3.1187E-01  1.8253E+01
                               -3.5523E-01  1.4246E+01 -4.8111E+01  2.5147E+03

           1    1.08004E+01     3.7347E-01  1.1293E-02 -3.1138E+00  3.1362E+00
ac ID =   33377                -5.6266E-01  1.8321E+01 -1.3182E-01  1.8330E+01
                               -3.5444E-01  1.4372E+01 -4.8106E+01  2.5147E+03

           1    1.09004E+01     3.7124E-01 -2.9078E-04 -3.1681E+00  3.1898E+00
ac ID =   33377                -4.1991E-01  1.8535E+01 -2.2675E-01  1.8541E+01
                               -3.5357E-01  1.4499E+01 -4.8099E+01  2.5147E+03

           1    1.10004E+01     3.8158E-01 -5.7710E-03 -3.2246E+00  3.2471E+00
ac ID =   33377                -2.5768E-01  1.9156E+01 -5.3267E-01  1.9166E+01
                               -3.5270E-01  1.4627E+01 -4.8089E+01  2.5147E+03

           1    1.11004E+01     3.8391E-01  2.9483E-05 -3.2537E+00  3.2762E+00
ac ID =   33377                -2.5530E-01  1.9428E+01 -2.3930E-01  1.9431E+01
                               -3.5178E-01  1.4756E+01 -4.8076E+01  2.5147E+03

           1    1.12004E+01     3.9151E-01 -1.6480E-04 -3.2927E+00  3.3159E+00
ac ID =   33377                -4.5688E-01  2.0124E+01  9.3442E-03  2.0129E+01
                               -3.5086E-01  1.4885E+01 -4.8060E+01  2.5147E+03

           1    1.13004E+01     4.0431E-01 -5.1375E-03 -3.3393E+00  3.3637E+00
ac ID =   33377                -3.0482E-01  2.0658E+01 -1.2906E-01  2.0661E+01
                               -3.4996E-01  1.5015E+01 -4.8041E+01  2.5147E+03

           1    1.14004E+01     4.0748E-01 -5.6226E-04 -3.3612E+00  3.3859E+00
ac ID =   33377                -5.7939E-01  2.1045E+01 -1.9063E-01  2.1053E+01
                               -3.4903E-01  1.5146E+01 -4.8018E+01  2.5147E+03

           1    1.15003E+01     4.1748E-01  2.5526E-03 -3.4000E+00  3.4255E+00
ac ID =   33377                -4.5178E-01  2.1445E+01 -2.7906E-01  2.1452E+01
                               -3.4815E-01  1.5278E+01 -4.7993E+01  2.5147E+03

           1    1.16003E+01     4.1469E-01 -4.3473E-03 -3.4383E+00  3.4632E+00
ac ID =   33377                -4.4123E-01  2.1639E+01  1.1244E-01  2.1644E+01
                               -3.4728E-01  1.5410E+01 -4.7964E+01  2.5147E+03

           1    1.17003E+01     4.3580E-01 -8.1095E-03 -3.4888E+00  3.5159E+00
ac ID =   33377                -2.2323E-01  2.2391E+01  3.0653E-01  2.2394E+01
                               -3.4644E-01  1.5543E+01 -4.7931E+01  2.5147E+03

           1    1.18003E+01     4.3484E-01  4.2439E-03 -3.5338E+00  3.5604E+00
ac ID =   33377                -3.5141E-01  2.2844E+01  3.6097E-01  2.2849E+01
                               -3.4561E-01  1.5676E+01 -4.7896E+01  2.5147E+03

           1    1.19003E+01     4.4459E-01 -4.3620E-03 -3.5584E+00  3.5861E+00
ac ID =   33377                -1.5320E-01  2.3092E+01 -3.7585E-02  2.3093E+01
                               -3.4479E-01  1.5810E+01 -4.7857E+01  2.5147E+03

           1    1.20003E+01     4.5712E-01 -7.2656E-03 -3.5703E+00  3.5995E+00
ac ID =   33377                 1.0425E-01  2.3825E+01 -4.4469E-01  2.3829E+01
                               -3.4398E-01  1.5944E+01 -4.7815E+01  2.5147E+03

           1    1.21003E+01     4.5280E-01  1.0938E-03 -3.5766E+00  3.6051E+00
ac ID =   33377                -1.8167E-01  2.3741E+01 -2.6168E-01  2.3743E+01
                               -3.4314E-01  1.6078E+01 -4.7769E+01  2.5147E+03

           1    1.22003E+01     4.5377E-01 -4.1212E-03 -3.5751E+00  3.6037E+00
ac ID =   33377                 4.3671E-03  2.4223E+01 -3.0941E-02  2.4223E+01
                               -3.4235E-01  1.6213E+01 -4.7719E+01  2.5147E+03

           1    1.23003E+01     4.6883E-01 -5.6882E-03 -3.5687E+00  3.5994E+00
ac ID =   33377                -1.1084E-01  2.4265E+01  3.0877E-01  2.4267E+01
                               -3.4154E-01  1.6348E+01 -4.7666E+01  2.5147E+03

           1    1.24003E+01     4.6922E-01 -6.2478E-03 -3.5618E+00  3.5925E+00
ac ID =   33377                -1.9774E-01  2.4541E+01  3.3103E-02  2.4542E+01
                               -3.4075E-01  1.6483E+01 -4.7610E+01  2.5147E+03

           1    1.25002E+01     4.6084E-01 -6.6819E-03 -3.5568E+00  3.5866E+00
ac ID =   33377                 3.9126E-02  2.4453E+01 -3.1148E-01  2.4455E+01
                               -3.3996E-01  1.6618E+01 -4.7550E+01  2.5147E+03

           1    1.26002E+01     4.7119E-01  4.3271E-04 -3.5617E+00  3.5928E+00
ac ID =   33377                -2.6297E-01  2.4865E+01 -1.7652E-01  2.4867E+01
                               -3.3921E-01  1.6753E+01 -4.7487E+01  2.5147E+03

           1    1.27002E+01     4.7960E-01 -7.5268E-03 -3.5334E+00  3.5658E+00
ac ID =   33377                 8.7948E-02  2.5468E+01  9.8608E-02  2.5468E+01
                               -3.3849E-01  1.6889E+01 -4.7420E+01  2.5147E+03

           1    1.28002E+01     4.8757E-01 -3.8201E-03 -3.5247E+00  3.5582E+00
ac ID =   33377                 6.1839E-02  2.5865E+01  1.0311E-01  2.5866E+01
                               -3.3774E-01  1.7024E+01 -4.7349E+01  2.5147E+03

           1    1.29002E+01     4.6593E-01 -5.5854E-03 -3.4786E+00  3.5096E+00
ac ID =   33377                 1.3903E-01  2.5899E+01  9.9278E-02  2.5899E+01
                               -3.3699E-01  1.7160E+01 -4.7275E+01  2.5147E+03

           1    1.30002E+01     4.9005E-01 -9.7575E-03 -3.4423E+00  3.4770E+00
ac ID =   33377                 2.7945E-01  2.6019E+01 -2.7449E-01  2.6022E+01
                               -3.3633E-01  1.7295E+01 -4.7197E+01  2.5147E+03

           1    1.31002E+01     4.9217E-01  5.4016E-03 -3.4477E+00  3.4826E+00
ac ID =   33377                -3.0530E-01  2.6339E+01 -3.5005E-01  2.6343E+01
                               -3.3562E-01  1.7430E+01 -4.7116E+01  2.5147E+03

           1    1.32002E+01     4.6911E-01 -1.7438E-03 -3.3823E+00  3.4147E+00
ac ID =   33377                -2.3651E-01  2.5746E+01  2.0741E-01  2.5748E+01
                               -3.3493E-01  1.7565E+01 -4.7031E+01  2.5147E+03

           1    1.33002E+01     4.6556E-01 -1.4345E-02 -3.3530E+00  3.3852E+00
ac ID =   33377                 4.3264E-01  2.6029E+01  1.7423E-01  2.6033E+01
                               -3.3433E-01  1.7700E+01 -4.6943E+01  2.5147E+03

           1    1.34002E+01     5.0225E-01  2.3444E-03 -3.3616E+00  3.3989E+00
ac ID =   33377                -4.4177E-01  2.6819E+01 -1.6087E-01  2.6823E+01
                               -3.3365E-01  1.7835E+01 -4.6851E+01  2.5147E+03

           1    1.35001E+01     4.8282E-01  1.1233E-02 -3.2968E+00  3.3320E+00
ac ID =   33377                -3.6751E-01  2.6206E+01 -2.8629E-01  2.6210E+01
                               -3.3311E-01  1.7970E+01 -4.6757E+01  2.5147E+03

           1    1.36001E+01     4.7307E-01 -3.7467E-02 -3.2345E+00  3.2691E+00
ac ID =   33377                 9.0171E-01  2.6036E+01 -1.5964E-01  2.6052E+01
                               -3.3251E-01  1.8104E+01 -4.6658E+01  2.5147E+03

           1    1.37001E+01     5.1020E-01  1.1291E-02 -3.2240E+00  3.2642E+00
ac ID =   33377                -3.5596E-01  2.6628E+01 -2.2415E-01  2.6632E+01
                               -3.3192E-01  1.8239E+01 -4.6557E+01  2.5147E+03

           1    1.38001E+01     4.7054E-01  2.2322E-02 -3.1392E+00  3.1744E+00
ac ID =   33377                -2.2182E-01  2.6079E+01 -2.7001E-01  2.6081E+01
                               -3.3145E-01  1.8373E+01 -4.6452E+01  2.5147E+03

           1    1.39001E+01     4.5879E-01 -2.0054E-02 -3.0481E+00  3.0825E+00
ac ID =   33377                 3.1037E-01  2.5133E+01  1.2664E-01  2.5135E+01
                               -3.3083E-01  1.8507E+01 -4.6345E+01  2.5147E+03

           1    1.40001E+01     4.9019E-01 -1.4869E-02 -3.0514E+00  3.0905E+00
ac ID =   33377                 2.4697E-01  2.5751E+01 -2.9513E-01  2.5754E+01
                               -3.3026E-01  1.8641E+01 -4.6234E+01  2.5147E+03

           1    1.41001E+01     4.9417E-01  4.2087E-02 -2.9730E+00  3.0140E+00
ac ID =   33377                -1.3823E+00  2.5691E+01 -5.8760E-01  2.5735E+01
                               -3.2977E-01  1.8775E+01 -4.6120E+01  2.5147E+03

