 LSTC 50th% Full_FE H-III Dummy (Beta Version, February 17, 2019)        
                    ls-dyna smp s R16 R16.0_619_d222963 date 03/18/2025

{BEGIN LEGEND}
 Entity #        Title
    22626                                                                                     
{END LEGEND}




 n o d a l   p r i n t   o u t   f o r   t i m e  s t e p       1                              ( at time 0.0000000E+00 )

 nodal point  x-disp     y-disp      z-disp      x-vel       y-vel       z-vel      x-accl      y-accl      z-accl      x-coor      y-coor      z-coor
    22626  0.00000E+00 0.00000E+00 0.00000E+00 0.00000E+00 0.00000E+00 0.00000E+00 0.00000E+00 0.00000E+00 0.00000E+00 4.65938E+00-2.81908E+01-4.49817E+01



 n o d a l   p r i n t   o u t   f o r   t i m e  s t e p       1                              ( at time 0.0000000E+00 )

 nodal point  x-rot      y-rot       z-rot       x-rot vel   y-rot vel   z-rot vel   x-rot acc   y-rot acc   z-rot acc
    22626  0.00000E+00 0.00000E+00 0.00000E+00 0.00000E+00 0.00000E+00 0.00000E+00 0.00000E+00 0.00000E+00 0.00000E+00



 n o d a l   p r i n t   o u t   f o r   t i m e  s t e p     201                              ( at time 9.9989993E-02 )

 nodal point  x-disp     y-disp      z-disp      x-vel       y-vel       z-vel      x-accl      y-accl      z-accl      x-coor      y-coor      z-coor
    22626  2.73575E-07 1.73669E-06-5.34278E-05 4.19752E-05 2.55596E-04-1.46819E-03 4.19794E-04 2.55621E-03-1.46834E-02 4.65938E+00-2.81908E+01-4.49818E+01



 n o d a l   p r i n t   o u t   f o r   t i m e  s t e p     201                              ( at time 9.9989993E-02 )

 nodal point  x-rot      y-rot       z-rot       x-rot vel   y-rot vel   z-rot vel   x-rot acc   y-rot acc   z-rot acc
    22626 -5.98980E-08-8.38467E-09-5.45921E-09-5.86955E-06-9.69951E-07-9.27110E-07-5.87014E-05-9.70048E-06-9.27203E-06



 n o d a l   p r i n t   o u t   f o r   t i m e  s t e p     401                              ( at time 1.9997999E-01 )

 nodal point  x-disp     y-disp      z-disp      x-vel       y-vel       z-vel      x-accl      y-accl      z-accl      x-coor      y-coor      z-coor
    22626  1.73124E-05 3.61746E-04-6.67594E-04 3.01359E-05 7.81117E-03-1.21543E-02-1.18405E-04 7.55633E-02-1.06872E-01 4.65939E+00-2.81905E+01-4.49824E+01



 n o d a l   p r i n t   o u t   f o r   t i m e  s t e p     401                              ( at time 1.9997999E-01 )

 nodal point  x-rot      y-rot       z-rot       x-rot vel   y-rot vel   z-rot vel   x-rot acc   y-rot acc   z-rot acc
    22626 -2.82005E-06-3.37246E-07-3.34647E-07-3.94355E-05-1.74988E-06-2.28195E-06-3.35693E-04-7.80008E-06-1.35498E-05



 n o d a l   p r i n t   o u t   f o r   t i m e  s t e p     601                              ( at time 2.9996998E-01 )

 nodal point  x-disp     y-disp      z-disp      x-vel       y-vel       z-vel      x-accl      y-accl      z-accl      x-coor      y-coor      z-coor
    22626  2.73650E-05 1.24009E-03-2.33842E-03 4.21796E-04 8.45198E-03-1.92580E-02 3.91699E-03 6.40873E-03-7.10433E-02 4.65940E+00-2.81896E+01-4.49841E+01



 n o d a l   p r i n t   o u t   f o r   t i m e  s t e p     601                              ( at time 2.9996998E-01 )

 nodal point  x-rot      y-rot       z-rot       x-rot vel   y-rot vel   z-rot vel   x-rot acc   y-rot acc   z-rot acc
    22626 -5.38396E-06-3.90679E-07-6.42294E-07-1.54111E-05-5.48688E-06-6.65508E-06 2.40268E-04-3.73738E-05-4.37356E-05



 n o d a l   p r i n t   o u t   f o r   t i m e  s t e p     801                              ( at time 3.9995997E-01 )

 nodal point  x-disp     y-disp      z-disp      x-vel       y-vel       z-vel      x-accl      y-accl      z-accl      x-coor      y-coor      z-coor
    22626  2.60149E-05 2.16242E-03-4.28289E-03-3.13712E-04 1.07396E-02-2.10855E-02-7.35582E-03 2.28781E-02-1.82768E-02 4.65940E+00-2.81887E+01-4.49860E+01



 n o d a l   p r i n t   o u t   f o r   t i m e  s t e p     801                              ( at time 3.9995997E-01 )

 nodal point  x-rot      y-rot       z-rot       x-rot vel   y-rot vel   z-rot vel   x-rot acc   y-rot acc   z-rot acc
    22626 -7.61666E-06-1.24988E-06-9.81085E-07-4.49464E-05-6.20769E-06-1.48426E-06-2.95382E-04-7.20878E-06 5.17134E-05



 n o d a l   p r i n t   o u t   f o r   t i m e  s t e p    1001                              ( at time 4.9994997E-01 )

 nodal point  x-disp     y-disp      z-disp      x-vel       y-vel       z-vel      x-accl      y-accl      z-accl      x-coor      y-coor      z-coor
    22626  3.69411E-06 3.43651E-03-6.74477E-03-2.41646E-04 1.41459E-02-2.87078E-02 7.20741E-04 3.40663E-02-7.62305E-02 4.65938E+00-2.81874E+01-4.49885E+01



 n o d a l   p r i n t   o u t   f o r   t i m e  s t e p    1001                              ( at time 4.9994997E-01 )

 nodal point  x-rot      y-rot       z-rot       x-rot vel   y-rot vel   z-rot vel   x-rot acc   y-rot acc   z-rot acc
    22626 -1.35613E-05-1.16562E-06-9.50153E-07-8.43051E-05 3.21491E-06 4.11470E-06-3.93626E-04 9.42354E-05 5.59952E-05



 n o d a l   p r i n t   o u t   f o r   t i m e  s t e p    1201                              ( at time 5.9993996E-01 )

 nodal point  x-disp     y-disp      z-disp      x-vel       y-vel       z-vel      x-accl      y-accl      z-accl      x-coor      y-coor      z-coor
    22626 -8.82638E-07 5.01226E-03-9.71616E-03 4.68231E-05 1.66998E-02-3.09903E-02 2.88497E-03 2.55419E-02-2.28274E-02 4.65937E+00-2.81858E+01-4.49914E+01



 n o d a l   p r i n t   o u t   f o r   t i m e  s t e p    1201                              ( at time 5.9993996E-01 )

 nodal point  x-rot      y-rot       z-rot       x-rot vel   y-rot vel   z-rot vel   x-rot acc   y-rot acc   z-rot acc
    22626 -2.02872E-05-8.87288E-07-9.58015E-07-5.90115E-05 3.84301E-06-2.03851E-06 2.52961E-04 6.28162E-06-6.15382E-05



 n o d a l   p r i n t   o u t   f o r   t i m e  s t e p    1401                              ( at time 6.9992995E-01 )

 nodal point  x-disp     y-disp      z-disp      x-vel       y-vel       z-vel      x-accl      y-accl      z-accl      x-coor      y-coor      z-coor
    22626 -5.09929E-05 6.85043E-03-1.31710E-02-4.90154E-04 1.96616E-02-3.89643E-02-5.37030E-03 2.96210E-02-7.97486E-02 4.65932E+00-2.81840E+01-4.49949E+01



 n o d a l   p r i n t   o u t   f o r   t i m e  s t e p    1401                              ( at time 6.9992995E-01 )

 nodal point  x-rot      y-rot       z-rot       x-rot vel   y-rot vel   z-rot vel   x-rot acc   y-rot acc   z-rot acc
    22626 -2.62091E-05-9.01270E-07-6.33106E-07-7.10181E-05 3.17796E-07 3.85440E-06-1.20078E-04-3.52556E-05 5.89350E-05



 n o d a l   p r i n t   o u t   f o r   t i m e  s t e p    1601                              ( at time 7.9991994E-01 )

 nodal point  x-disp     y-disp      z-disp      x-vel       y-vel       z-vel      x-accl      y-accl      z-accl      x-coor      y-coor      z-coor
    22626 -8.02793E-05 8.98675E-03-1.74642E-02-4.97908E-04 2.21666E-02-4.51195E-02-7.75491E-05 2.50527E-02-6.15578E-02 4.65929E+00-2.81818E+01-4.49992E+01



 n o d a l   p r i n t   o u t   f o r   t i m e  s t e p    1601                              ( at time 7.9991994E-01 )

 nodal point  x-rot      y-rot       z-rot       x-rot vel   y-rot vel   z-rot vel   x-rot acc   y-rot acc   z-rot acc
    22626 -3.43994E-05-8.79046E-07-5.15706E-07-9.18679E-05-4.82654E-06 1.54053E-06-2.08519E-04-5.14485E-05-2.31411E-05



 n o d a l   p r i n t   o u t   f o r   t i m e  s t e p    1801                              ( at time 8.9990994E-01 )

 nodal point  x-disp     y-disp      z-disp      x-vel       y-vel       z-vel      x-accl      y-accl      z-accl      x-coor      y-coor      z-coor
    22626 -1.16868E-04 1.12542E-02-2.19906E-02-2.88479E-04 2.40466E-02-4.55888E-02 2.09450E-03 1.88017E-02-4.69370E-03 4.65926E+00-2.81796E+01-4.50037E+01



 n o d a l   p r i n t   o u t   f o r   t i m e  s t e p    1801                              ( at time 8.9990994E-01 )

 nodal point  x-rot      y-rot       z-rot       x-rot vel   y-rot vel   z-rot vel   x-rot acc   y-rot acc   z-rot acc
    22626 -4.28178E-05-9.58451E-07-5.02392E-07-8.22745E-05 1.98036E-06-7.01102E-07 9.59434E-05 6.80758E-05-2.24186E-05



 n o d a l   p r i n t   o u t   f o r   t i m e  s t e p    2001                              ( at time 9.9989993E-01 )

 nodal point  x-disp     y-disp      z-disp      x-vel       y-vel       z-vel      x-accl      y-accl      z-accl      x-coor      y-coor      z-coor
    22626 -1.52064E-04 1.37913E-02-2.67304E-02-3.64215E-05 2.64994E-02-5.00332E-02 2.52083E-03 2.45308E-02-4.44486E-02 4.65922E+00-2.81770E+01-4.50084E+01



 n o d a l   p r i n t   o u t   f o r   t i m e  s t e p    2001                              ( at time 9.9989993E-01 )

 nodal point  x-rot      y-rot       z-rot       x-rot vel   y-rot vel   z-rot vel   x-rot acc   y-rot acc   z-rot acc
    22626 -5.18485E-05-9.08906E-07-4.37823E-07-1.06145E-04 1.20345E-06-3.05017E-06-2.38732E-04-7.76981E-06-2.34930E-05



 n o d a l   p r i n t   o u t   f o r   t i m e  s t e p    2201                              ( at time 1.0998899E+00 )

 nodal point  x-disp     y-disp      z-disp      x-vel       y-vel       z-vel      x-accl      y-accl      z-accl      x-coor      y-coor      z-coor
    22626 -1.59774E-04 1.65322E-02-3.20558E-02-3.43933E-04 2.88855E-02-5.60786E-02-3.07542E-03 2.38632E-02-6.04600E-02 4.65922E+00-2.81743E+01-4.50138E+01



 n o d a l   p r i n t   o u t   f o r   t i m e  s t e p    2201                              ( at time 1.0998899E+00 )

 nodal point  x-rot      y-rot       z-rot       x-rot vel   y-rot vel   z-rot vel   x-rot acc   y-rot acc   z-rot acc
    22626 -6.29457E-05-1.00509E-06-7.50107E-07-1.03801E-04-7.63461E-06-2.04224E-06 2.34486E-05-8.83895E-05 1.00804E-05



 n o d a l   p r i n t   o u t   f o r   t i m e  s t e p    2401                              ( at time 1.1998799E+00 )

 nodal point  x-disp     y-disp      z-disp      x-vel       y-vel       z-vel      x-accl      y-accl      z-accl      x-coor      y-coor      z-coor
    22626 -1.89783E-04 1.94752E-02-3.79327E-02-1.93827E-04 3.02264E-02-6.12094E-02 1.50121E-03 1.34103E-02-5.13127E-02 4.65919E+00-2.81714E+01-4.50197E+01



 n o d a l   p r i n t   o u t   f o r   t i m e  s t e p    2401                              ( at time 1.1998799E+00 )

 nodal point  x-rot      y-rot       z-rot       x-rot vel   y-rot vel   z-rot vel   x-rot acc   y-rot acc   z-rot acc
    22626 -7.29517E-05-1.61493E-06-9.91369E-07-1.01282E-04-7.24227E-06-3.02374E-06 2.51885E-05 3.92382E-06-9.81600E-06



 n o d a l   p r i n t   o u t   f o r   t i m e  s t e p    2601                              ( at time 1.2998699E+00 )

 nodal point  x-disp     y-disp      z-disp      x-vel       y-vel       z-vel      x-accl      y-accl      z-accl      x-coor      y-coor      z-coor
    22626 -2.23913E-04 2.26249E-02-4.42079E-02-2.48482E-04 3.25974E-02-6.40528E-02-5.46613E-04 2.37126E-02-2.84369E-02 4.65915E+00-2.81682E+01-4.50259E+01



 n o d a l   p r i n t   o u t   f o r   t i m e  s t e p    2601                              ( at time 1.2998699E+00 )

 nodal point  x-rot      y-rot       z-rot       x-rot vel   y-rot vel   z-rot vel   x-rot acc   y-rot acc   z-rot acc
    22626 -8.39949E-05-2.17178E-06-1.24604E-06-1.29529E-04 4.80405E-08-1.41721E-06-2.82493E-04 7.29104E-05 1.60669E-05



 n o d a l   p r i n t   o u t   f o r   t i m e  s t e p    2801                              ( at time 1.3998599E+00 )

 nodal point  x-disp     y-disp      z-disp      x-vel       y-vel       z-vel      x-accl      y-accl      z-accl      x-coor      y-coor      z-coor
    22626 -2.51427E-04 2.59923E-02-5.07121E-02-4.50680E-04 3.45145E-02-6.66711E-02-2.02218E-03 1.91727E-02-2.61860E-02 4.65912E+00-2.81648E+01-4.50324E+01



 n o d a l   p r i n t   o u t   f o r   t i m e  s t e p    2801                              ( at time 1.3998599E+00 )

 nodal point  x-rot      y-rot       z-rot       x-rot vel   y-rot vel   z-rot vel   x-rot acc   y-rot acc   z-rot acc
    22626 -9.73998E-05-2.01179E-06-1.34513E-06-1.36807E-04-2.43086E-07 1.79178E-06-7.27964E-05-2.91155E-06 3.20931E-05



 n o d a l   p r i n t   o u t   f o r   t i m e  s t e p    3001                              ( at time 1.4998499E+00 )

 nodal point  x-disp     y-disp      z-disp      x-vel       y-vel       z-vel      x-accl      y-accl      z-accl      x-coor      y-coor      z-coor
    22626 -2.96871E-04 2.95937E-02-5.77251E-02-4.86244E-04 3.74099E-02-7.40226E-02-3.55674E-04 2.89563E-02-7.35225E-02 4.65908E+00-2.81612E+01-4.50394E+01



 n o d a l   p r i n t   o u t   f o r   t i m e  s t e p    3001                              ( at time 1.4998499E+00 )

 nodal point  x-rot      y-rot       z-rot       x-rot vel   y-rot vel   z-rot vel   x-rot acc   y-rot acc   z-rot acc
    22626 -1.10691E-04-2.03936E-06-1.29891E-06-1.28848E-04-1.34636E-06-3.24939E-06 7.96071E-05-1.10338E-05-5.04167E-05



 n o d a l   p r i n t   o u t   f o r   t i m e  s t e p    3201                              ( at time 1.5998399E+00 )

 nodal point  x-disp     y-disp      z-disp      x-vel       y-vel       z-vel      x-accl      y-accl      z-accl      x-coor      y-coor      z-coor
    22626 -3.79523E-04 3.35531E-02-6.54605E-02-9.93314E-04 4.20745E-02-8.00277E-02-5.07121E-03 4.66513E-02-6.00564E-02 4.65900E+00-2.81573E+01-4.50472E+01



 n o d a l   p r i n t   o u t   f o r   t i m e  s t e p    3201                              ( at time 1.5998399E+00 )

 nodal point  x-rot      y-rot       z-rot       x-rot vel   y-rot vel   z-rot vel   x-rot acc   y-rot acc   z-rot acc
    22626 -1.23339E-04-2.33794E-06-1.69262E-06-1.37843E-04-6.58702E-06-7.93459E-06-8.99686E-05-5.24118E-05-4.68567E-05



 n o d a l   p r i n t   o u t   f o r   t i m e  s t e p    3401                              ( at time 1.6998299E+00 )

 nodal point  x-disp     y-disp      z-disp      x-vel       y-vel       z-vel      x-accl      y-accl      z-accl      x-coor      y-coor      z-coor
    22626 -5.18688E-04 3.80443E-02-7.36711E-02-1.88324E-03 4.79265E-02-8.39824E-02-8.90014E-03 5.85258E-02-3.95507E-02 4.65886E+00-2.81528E+01-4.50554E+01



 n o d a l   p r i n t   o u t   f o r   t i m e  s t e p    3401                              ( at time 1.6998299E+00 )

 nodal point  x-rot      y-rot       z-rot       x-rot vel   y-rot vel   z-rot vel   x-rot acc   y-rot acc   z-rot acc
    22626 -1.38130E-04-2.97368E-06-3.45445E-06-1.58062E-04-6.71964E-06-2.19002E-05-2.02202E-04-1.32636E-06-1.39670E-04



 n o d a l   p r i n t   o u t   f o r   t i m e  s t e p    3601                              ( at time 1.7998199E+00 )

 nodal point  x-disp     y-disp      z-disp      x-vel       y-vel       z-vel      x-accl      y-accl      z-accl      x-coor      y-coor      z-coor
    22626 -7.13387E-04 4.31812E-02-8.22609E-02-1.90733E-03 5.53624E-02-8.79371E-02-2.40897E-04 7.43667E-02-3.95513E-02 4.65866E+00-2.81476E+01-4.50640E+01



 n o d a l   p r i n t   o u t   f o r   t i m e  s t e p    3601                              ( at time 1.7998199E+00 )

 nodal point  x-rot      y-rot       z-rot       x-rot vel   y-rot vel   z-rot vel   x-rot acc   y-rot acc   z-rot acc
    22626 -1.54431E-04-3.79907E-06-6.33829E-06-1.64857E-04-7.35382E-06-3.16428E-05-6.79573E-05-6.34249E-06-9.74363E-05



 n o d a l   p r i n t   o u t   f o r   t i m e  s t e p    3801                              ( at time 1.8998099E+00 )

 nodal point  x-disp     y-disp      z-disp      x-vel       y-vel       z-vel      x-accl      y-accl      z-accl      x-coor      y-coor      z-coor
    22626 -9.21108E-04 4.92889E-02-9.13436E-02-2.28169E-03 6.66885E-02-9.40275E-02-3.74404E-03 1.13272E-01-6.09105E-02 4.65845E+00-2.81415E+01-4.50731E+01



 n o d a l   p r i n t   o u t   f o r   t i m e  s t e p    3801                              ( at time 1.8998099E+00 )

 nodal point  x-rot      y-rot       z-rot       x-rot vel   y-rot vel   z-rot vel   x-rot acc   y-rot acc   z-rot acc
    22626 -1.71058E-04-4.63745E-06-9.76872E-06-1.71908E-04-1.82959E-05-4.33207E-05-7.05223E-05-1.09431E-04-1.16791E-04



 n o d a l   p r i n t   o u t   f o r   t i m e  s t e p    4001                              ( at time 1.9997999E+00 )

 nodal point  x-disp     y-disp      z-disp      x-vel       y-vel       z-vel      x-accl      y-accl      z-accl      x-coor      y-coor      z-coor
    22626 -1.20109E-03 5.65692E-02-1.01107E-01-3.33710E-03 7.88985E-02-1.00876E-01-1.05552E-02 1.22112E-01-6.84943E-02 4.65817E+00-2.81343E+01-4.50828E+01



 n o d a l   p r i n t   o u t   f o r   t i m e  s t e p    4001                              ( at time 1.9997999E+00 )

 nodal point  x-rot      y-rot       z-rot       x-rot vel   y-rot vel   z-rot vel   x-rot acc   y-rot acc   z-rot acc
    22626 -1.89773E-04-6.67860E-06-1.51462E-05-2.01329E-04-2.84419E-05-6.42562E-05-2.94233E-04-1.01471E-04-2.09375E-04



 n o d a l   p r i n t   o u t   f o r   t i m e  s t e p    4201                              ( at time 2.0997899E+00 )

 nodal point  x-disp     y-disp      z-disp      x-vel       y-vel       z-vel      x-accl      y-accl      z-accl      x-coor      y-coor      z-coor
    22626 -1.56316E-03 6.51257E-02-1.11443E-01-3.67798E-03 9.24933E-02-1.05510E-01-3.40906E-03 1.35962E-01-4.63450E-02 4.65781E+00-2.81257E+01-4.50932E+01



 n o d a l   p r i n t   o u t   f o r   t i m e  s t e p    4201                              ( at time 2.0997899E+00 )

 nodal point  x-rot      y-rot       z-rot       x-rot vel   y-rot vel   z-rot vel   x-rot acc   y-rot acc   z-rot acc
    22626 -2.11423E-04-9.22992E-06-2.19361E-05-2.28848E-04-2.29296E-05-7.02414E-05-2.75224E-04 5.51286E-05-5.98582E-05



 n o d a l   p r i n t   o u t   f o r   t i m e  s t e p    4401                              ( at time 2.1997798E+00 )

 nodal point  x-disp     y-disp      z-disp      x-vel       y-vel       z-vel      x-accl      y-accl      z-accl      x-coor      y-coor      z-coor
    22626 -1.94634E-03 7.51433E-02-1.22190E-01-3.71241E-03 1.08220E-01-1.09574E-01-3.44347E-04 1.57279E-01-4.06429E-02 4.65743E+00-2.81157E+01-4.51039E+01



 n o d a l   p r i n t   o u t   f o r   t i m e  s t e p    4401                              ( at time 2.1997798E+00 )

 nodal point  x-rot      y-rot       z-rot       x-rot vel   y-rot vel   z-rot vel   x-rot acc   y-rot acc   z-rot acc
    22626 -2.37668E-04-1.15770E-05-2.91708E-05-2.94166E-04-2.30511E-05-7.21822E-05-6.53245E-04-1.21492E-06-1.94104E-05



 n o d a l   p r i n t   o u t   f o r   t i m e  s t e p    4601                              ( at time 2.2997698E+00 )

 nodal point  x-disp     y-disp      z-disp      x-vel       y-vel       z-vel      x-accl      y-accl      z-accl      x-coor      y-coor      z-coor
    22626 -2.37064E-03 8.68107E-02-1.33298E-01-4.61273E-03 1.26003E-01-1.13188E-01-9.00409E-03 1.77852E-01-3.61436E-02 4.65700E+00-2.81040E+01-4.51150E+01



 n o d a l   p r i n t   o u t   f o r   t i m e  s t e p    4601                              ( at time 2.2997698E+00 )

 nodal point  x-rot      y-rot       z-rot       x-rot vel   y-rot vel   z-rot vel   x-rot acc   y-rot acc   z-rot acc
    22626 -2.71300E-04-1.42114E-05-3.71876E-05-3.70691E-04-2.86558E-05-8.27582E-05-7.65321E-04-5.60521E-05-1.05770E-04



 n o d a l   p r i n t   o u t   f o r   t i m e  s t e p    4801                              ( at time 2.3997598E+00 )

 nodal point  x-disp     y-disp      z-disp      x-vel       y-vel       z-vel      x-accl      y-accl      z-accl      x-coor      y-coor      z-coor
    22626 -2.88578E-03 1.00460E-01-1.44863E-01-5.45514E-03 1.46674E-01-1.18263E-01-8.42496E-03 2.06728E-01-5.07550E-02 4.65649E+00-2.80904E+01-4.51266E+01



 n o d a l   p r i n t   o u t   f o r   t i m e  s t e p    4801                              ( at time 2.3997598E+00 )

 nodal point  x-rot      y-rot       z-rot       x-rot vel   y-rot vel   z-rot vel   x-rot acc   y-rot acc   z-rot acc
    22626 -3.12718E-04-1.75578E-05-4.65438E-05-4.64580E-04-3.35319E-05-9.37280E-05-9.38992E-04-4.87666E-05-1.09709E-04



 n o d a l   p r i n t   o u t   f o r   t i m e  s t e p    5001                              ( at time 2.4997498E+00 )

 nodal point  x-disp     y-disp      z-disp      x-vel       y-vel       z-vel      x-accl      y-accl      z-accl      x-coor      y-coor      z-coor
    22626 -3.45765E-03 1.16445E-01-1.56952E-01-5.91575E-03 1.71739E-01-1.22095E-01-4.60659E-03 2.50681E-01-3.83247E-02 4.65592E+00-2.80744E+01-4.51387E+01



 n o d a l   p r i n t   o u t   f o r   t i m e  s t e p    5001                              ( at time 2.4997498E+00 )

 nodal point  x-rot      y-rot       z-rot       x-rot vel   y-rot vel   z-rot vel   x-rot acc   y-rot acc   z-rot acc
    22626 -3.65778E-04-2.05361E-05-5.62519E-05-5.98989E-04-3.30903E-05-9.83400E-05-1.34422E-03 4.41632E-06-4.61244E-05



 n o d a l   p r i n t   o u t   f o r   t i m e  s t e p    5201                              ( at time 2.5997398E+00 )

 nodal point  x-disp     y-disp      z-disp      x-vel       y-vel       z-vel      x-accl      y-accl      z-accl      x-coor      y-coor      z-coor
    22626 -4.03603E-03 1.34767E-01-1.69117E-01-6.27625E-03 1.95936E-01-1.20979E-01-3.60536E-03 2.41994E-01 1.11683E-02 4.65534E+00-2.80561E+01-4.51508E+01



 n o d a l   p r i n t   o u t   f o r   t i m e  s t e p    5201                              ( at time 2.5997398E+00 )

 nodal point  x-rot      y-rot       z-rot       x-rot vel   y-rot vel   z-rot vel   x-rot acc   y-rot acc   z-rot acc
    22626 -4.33066E-04-2.37467E-05-6.61711E-05-7.44421E-04-3.53155E-05-1.06902E-04-1.45446E-03-2.22538E-05-8.56310E-05



 n o d a l   p r i n t   o u t   f o r   t i m e  s t e p    5401                              ( at time 2.6997298E+00 )

 nodal point  x-disp     y-disp      z-disp      x-vel       y-vel       z-vel      x-accl      y-accl      z-accl      x-coor      y-coor      z-coor
    22626 -4.70417E-03 1.55568E-01-1.81197E-01-6.87842E-03 2.20686E-01-1.19912E-01-6.02224E-03 2.47519E-01 1.06631E-02 4.65467E+00-2.80353E+01-4.51629E+01



 n o d a l   p r i n t   o u t   f o r   t i m e  s t e p    5401                              ( at time 2.6997298E+00 )

 nodal point  x-rot      y-rot       z-rot       x-rot vel   y-rot vel   z-rot vel   x-rot acc   y-rot acc   z-rot acc
    22626 -5.16866E-04-2.75082E-05-7.69599E-05-9.30813E-04-3.77566E-05-1.16555E-04-1.86411E-03-2.44131E-05-9.65349E-05



 n o d a l   p r i n t   o u t   f o r   t i m e  s t e p    5601                              ( at time 2.7997198E+00 )

 nodal point  x-disp     y-disp      z-disp      x-vel       y-vel       z-vel      x-accl      y-accl      z-accl      x-coor      y-coor      z-coor
    22626 -5.39282E-03 1.79028E-01-1.93209E-01-6.70268E-03 2.48937E-01-1.20740E-01 1.75752E-03 2.82545E-01-8.27396E-03 4.65398E+00-2.80118E+01-4.51749E+01



 n o d a l   p r i n t   o u t   f o r   t i m e  s t e p    5601                              ( at time 2.7997198E+00 )

 nodal point  x-rot      y-rot       z-rot       x-rot vel   y-rot vel   z-rot vel   x-rot acc   y-rot acc   z-rot acc
    22626 -6.18342E-04-3.09671E-05-8.81445E-05-1.12010E-03-2.93362E-05-1.02806E-04-1.89304E-03 8.42124E-05 1.37506E-04



 n o d a l   p r i n t   o u t   f o r   t i m e  s t e p    5801                              ( at time 2.8997098E+00 )

 nodal point  x-disp     y-disp      z-disp      x-vel       y-vel       z-vel      x-accl      y-accl      z-accl      x-coor      y-coor      z-coor
    22626 -6.01959E-03 2.05306E-01-2.05265E-01-6.26944E-03 2.76590E-01-1.20423E-01 4.33283E-03 2.76558E-01 3.16957E-03 4.65336E+00-2.79855E+01-4.51870E+01



 n o d a l   p r i n t   o u t   f o r   t i m e  s t e p    5801                              ( at time 2.8997098E+00 )

 nodal point  x-rot      y-rot       z-rot       x-rot vel   y-rot vel   z-rot vel   x-rot acc   y-rot acc   z-rot acc
    22626 -7.38242E-04-3.38080E-05-9.81794E-05-1.31545E-03-3.44176E-05-9.79116E-05-1.95374E-03-5.08192E-05 4.89454E-05



 n o d a l   p r i n t   o u t   f o r   t i m e  s t e p    6001                              ( at time 2.9996998E+00 )

 nodal point  x-disp     y-disp      z-disp      x-vel       y-vel       z-vel      x-accl      y-accl      z-accl      x-coor      y-coor      z-coor
    22626 -6.68273E-03 2.34437E-01-2.17176E-01-6.94243E-03 3.06419E-01-1.17131E-01-6.73056E-03 2.98313E-01 3.29250E-02 4.65269E+00-2.79564E+01-4.51989E+01



 n o d a l   p r i n t   o u t   f o r   t i m e  s t e p    6001                              ( at time 2.9996998E+00 )

 nodal point  x-rot      y-rot       z-rot       x-rot vel   y-rot vel   z-rot vel   x-rot acc   y-rot acc   z-rot acc
    22626 -8.80619E-04-3.75892E-05-1.08587E-04-1.54420E-03-4.02331E-05-1.10556E-04-2.28767E-03-5.81611E-05-1.26454E-04



 n o d a l   p r i n t   o u t   f o r   t i m e  s t e p    6201                              ( at time 3.0996898E+00 )

 nodal point  x-disp     y-disp      z-disp      x-vel       y-vel       z-vel      x-accl      y-accl      z-accl      x-coor      y-coor      z-coor
    22626 -7.38606E-03 2.66384E-01-2.28727E-01-6.44534E-03 3.34298E-01-1.14241E-01 4.97141E-03 2.78818E-01 2.88936E-02 4.65199E+00-2.79244E+01-4.52104E+01



 n o d a l   p r i n t   o u t   f o r   t i m e  s t e p    6201                              ( at time 3.0996898E+00 )

 nodal point  x-rot      y-rot       z-rot       x-rot vel   y-rot vel   z-rot vel   x-rot acc   y-rot acc   z-rot acc
    22626 -1.04527E-03-4.11348E-05-1.18346E-04-1.75129E-03-2.70043E-05-9.02061E-05-2.07113E-03 1.32302E-04 2.03516E-04



 n o d a l   p r i n t   o u t   f o r   t i m e  s t e p    6401                              ( at time 3.1996798E+00 )

 nodal point  x-disp     y-disp      z-disp      x-vel       y-vel       z-vel      x-accl      y-accl      z-accl      x-coor      y-coor      z-coor
    22626 -7.98349E-03 3.01497E-01-2.40187E-01-6.20946E-03 3.65885E-01-1.14380E-01 2.35904E-03 3.15904E-01-1.38341E-03 4.65139E+00-2.78893E+01-4.52219E+01



 n o d a l   p r i n t   o u t   f o r   t i m e  s t e p    6401                              ( at time 3.1996798E+00 )

 nodal point  x-rot      y-rot       z-rot       x-rot vel   y-rot vel   z-rot vel   x-rot acc   y-rot acc   z-rot acc
    22626 -1.23193E-03-4.33943E-05-1.26465E-04-1.94974E-03-2.39293E-05-8.17466E-05-1.98475E-03 3.07522E-05 8.46035E-05



 n o d a l   p r i n t   o u t   f o r   t i m e  s t e p    6601                              ( at time 3.2996698E+00 )

 nodal point  x-disp     y-disp      z-disp      x-vel       y-vel       z-vel      x-accl      y-accl      z-accl      x-coor      y-coor      z-coor
    22626 -8.66399E-03 3.39836E-01-2.51606E-01-7.55949E-03 4.00419E-01-1.13559E-01-1.35017E-02 3.45373E-01 8.21301E-03 4.65071E+00-2.78510E+01-4.52333E+01



 n o d a l   p r i n t   o u t   f o r   t i m e  s t e p    6601                              ( at time 3.2996698E+00 )

 nodal point  x-rot      y-rot       z-rot       x-rot vel   y-rot vel   z-rot vel   x-rot acc   y-rot acc   z-rot acc
    22626 -1.44054E-03-4.67194E-05-1.35826E-04-2.20040E-03-4.51570E-05-1.05824E-04-2.50683E-03-2.12298E-04-2.40797E-04



 n o d a l   p r i n t   o u t   f o r   t i m e  s t e p    6801                              ( at time 3.3996598E+00 )

 nodal point  x-disp     y-disp      z-disp      x-vel       y-vel       z-vel      x-accl      y-accl      z-accl      x-coor      y-coor      z-coor
    22626 -9.43646E-03 3.81532E-01-2.62781E-01-7.48637E-03 4.32823E-01-1.09399E-01 7.31272E-04 3.24072E-01 4.16008E-02 4.64994E+00-2.78093E+01-4.52445E+01



 n o d a l   p r i n t   o u t   f o r   t i m e  s t e p    6801                              ( at time 3.3996598E+00 )

 nodal point  x-rot      y-rot       z-rot       x-rot vel   y-rot vel   z-rot vel   x-rot acc   y-rot acc   z-rot acc
    22626 -1.67495E-03-5.07773E-05-1.45830E-04-2.45557E-03-3.63413E-05-9.45200E-05-2.55189E-03 8.81654E-05 1.13050E-04



 n o d a l   p r i n t   o u t   f o r   t i m e  s t e p    7001                              ( at time 3.4996498E+00 )

 nodal point  x-disp     y-disp      z-disp      x-vel       y-vel       z-vel      x-accl      y-accl      z-accl      x-coor      y-coor      z-coor
    22626 -1.01265E-02 4.26542E-01-2.73480E-01-6.35084E-03 4.66798E-01-1.05141E-01 1.13565E-02 3.39790E-01 4.25838E-02 4.64925E+00-2.77643E+01-4.52552E+01



 n o d a l   p r i n t   o u t   f o r   t i m e  s t e p    7001                              ( at time 3.4996498E+00 )

 nodal point  x-rot      y-rot       z-rot       x-rot vel   y-rot vel   z-rot vel   x-rot acc   y-rot acc   z-rot acc
    22626 -1.93491E-03-5.28851E-05-1.54076E-04-2.69141E-03-2.18899E-05-8.64183E-05-2.35872E-03 1.44529E-04 8.10249E-05



 n o d a l   p r i n t   o u t   f o r   t i m e  s t e p    7201                              ( at time 3.5996397E+00 )

 nodal point  x-disp     y-disp      z-disp      x-vel       y-vel       z-vel      x-accl      y-accl      z-accl      x-coor      y-coor      z-coor
    22626 -1.08211E-02 4.75092E-01-2.83837E-01-6.54425E-03 5.02982E-01-1.02848E-01-1.93430E-03 3.61872E-01 2.29328E-02 4.64855E+00-2.77157E+01-4.52656E+01



 n o d a l   p r i n t   o u t   f o r   t i m e  s t e p    7201                              ( at time 3.5996397E+00 )

 nodal point  x-rot      y-rot       z-rot       x-rot vel   y-rot vel   z-rot vel   x-rot acc   y-rot acc   z-rot acc
    22626 -2.21788E-03-5.51206E-05-1.62618E-04-2.96653E-03-2.90050E-05-9.23623E-05-2.75143E-03-7.11578E-05-5.94453E-05



 n o d a l   p r i n t   o u t   f o r   t i m e  s t e p    7401                              ( at time 3.6996297E+00 )

 nodal point  x-disp     y-disp      z-disp      x-vel       y-vel       z-vel      x-accl      y-accl      z-accl      x-coor      y-coor      z-coor
    22626 -1.15589E-02 5.27326E-01-2.93774E-01-7.14858E-03 5.41646E-01-9.66187E-02-6.04389E-03 3.86677E-01 6.22985E-02 4.64782E+00-2.76635E+01-4.52755E+01



 n o d a l   p r i n t   o u t   f o r   t i m e  s t e p    7401                              ( at time 3.6996297E+00 )

 nodal point  x-rot      y-rot       z-rot       x-rot vel   y-rot vel   z-rot vel   x-rot acc   y-rot acc   z-rot acc
    22626 -2.52907E-03-5.82274E-05-1.71533E-04-3.26124E-03-3.32154E-05-8.09753E-05-2.94737E-03-4.21088E-05 1.13881E-04



 n o d a l   p r i n t   o u t   f o r   t i m e  s t e p    7601                              ( at time 3.7996197E+00 )

 nodal point  x-disp     y-disp      z-disp      x-vel       y-vel       z-vel      x-accl      y-accl      z-accl      x-coor      y-coor      z-coor
    22626 -1.22630E-02 5.83491E-01-3.03229E-01-6.01345E-03 5.82556E-01-9.23294E-02 1.13524E-02 4.09144E-01 4.28970E-02 4.64711E+00-2.76073E+01-4.52850E+01



 n o d a l   p r i n t   o u t   f o r   t i m e  s t e p    7601                              ( at time 3.7996197E+00 )

 nodal point  x-rot      y-rot       z-rot       x-rot vel   y-rot vel   z-rot vel   x-rot acc   y-rot acc   z-rot acc
    22626 -2.86938E-03-6.05012E-05-1.79414E-04-3.54512E-03-1.97206E-05-6.32444E-05-2.83917E-03 1.34962E-04 1.77327E-04



 n o d a l   p r i n t   o u t   f o r   t i m e  s t e p    7801                              ( at time 3.8996097E+00 )

 nodal point  x-disp     y-disp      z-disp      x-vel       y-vel       z-vel      x-accl      y-accl      z-accl      x-coor      y-coor      z-coor
    22626 -1.28495E-02 6.43764E-01-3.12098E-01-5.83171E-03 6.22750E-01-8.45611E-02 1.81756E-03 4.01982E-01 7.76905E-02 4.64653E+00-2.75471E+01-4.52938E+01



 n o d a l   p r i n t   o u t   f o r   t i m e  s t e p    7801                              ( at time 3.8996097E+00 )

 nodal point  x-rot      y-rot       z-rot       x-rot vel   y-rot vel   z-rot vel   x-rot acc   y-rot acc   z-rot acc
    22626 -3.23865E-03-6.18807E-05-1.85745E-04-3.82983E-03-2.19133E-05-6.88971E-05-2.84737E-03-2.19288E-05-5.65329E-05



 n o d a l   p r i n t   o u t   f o r   t i m e  s t e p    8001                              ( at time 3.9995997E+00 )

 nodal point  x-disp     y-disp      z-disp      x-vel       y-vel       z-vel      x-accl      y-accl      z-accl      x-coor      y-coor      z-coor
    22626 -1.34588E-02 7.08150E-01-3.20165E-01-6.33978E-03 6.64860E-01-7.68877E-02-5.08118E-03 4.21135E-01 7.67417E-02 4.64592E+00-2.74827E+01-4.53019E+01



 n o d a l   p r i n t   o u t   f o r   t i m e  s t e p    8001                              ( at time 3.9995997E+00 )

 nodal point  x-rot      y-rot       z-rot       x-rot vel   y-rot vel   z-rot vel   x-rot acc   y-rot acc   z-rot acc
    22626 -3.63794E-03-6.38861E-05-1.92705E-04-4.12590E-03-2.42530E-05-7.03668E-05-2.96095E-03-2.33991E-05-1.46980E-05



 n o d a l   p r i n t   o u t   f o r   t i m e  s t e p    8201                              ( at time 4.0995897E+00 )

 nodal point  x-disp     y-disp      z-disp      x-vel       y-vel       z-vel      x-accl      y-accl      z-accl      x-coor      y-coor      z-coor
    22626 -1.40537E-02 7.76793E-01-3.27504E-01-5.12173E-03 7.07744E-01-6.96577E-02 1.21817E-02 4.28890E-01 7.23074E-02 4.64532E+00-2.74140E+01-4.53092E+01



 n o d a l   p r i n t   o u t   f o r   t i m e  s t e p    8201                              ( at time 4.0995897E+00 )

 nodal point  x-rot      y-rot       z-rot       x-rot vel   y-rot vel   z-rot vel   x-rot acc   y-rot acc   z-rot acc
    22626 -4.06727E-03-6.51588E-05-1.98234E-04-4.44309E-03 4.47562E-07-4.13379E-05-3.17222E-03 2.47030E-04 2.90317E-04



 n o d a l   p r i n t   o u t   f o r   t i m e  s t e p    8401                              ( at time 4.1995797E+00 )

 nodal point  x-disp     y-disp      z-disp      x-vel       y-vel       z-vel      x-accl      y-accl      z-accl      x-coor      y-coor      z-coor
    22626 -1.45269E-02 8.49671E-01-3.34039E-01-3.90293E-03 7.50282E-01-6.17724E-02 1.21892E-02 4.25419E-01 7.88612E-02 4.64485E+00-2.73412E+01-4.53158E+01



 n o d a l   p r i n t   o u t   f o r   t i m e  s t e p    8401                              ( at time 4.1995797E+00 )

 nodal point  x-rot      y-rot       z-rot       x-rot vel   y-rot vel   z-rot vel   x-rot acc   y-rot acc   z-rot acc
    22626 -4.52726E-03-6.49496E-05-2.01749E-04-4.73453E-03 1.06545E-05-3.58205E-05-2.91474E-03 1.02079E-04 5.51793E-05



 n o d a l   p r i n t   o u t   f o r   t i m e  s t e p    8601                              ( at time 4.2995697E+00 )

 nodal point  x-disp     y-disp      z-disp      x-vel       y-vel       z-vel      x-accl      y-accl      z-accl      x-coor      y-coor      z-coor
    22626 -1.49897E-02 9.26906E-01-3.39738E-01-5.73982E-03 7.92064E-01-5.12748E-02-1.83707E-02 4.17861E-01 1.04987E-01 4.64439E+00-2.72639E+01-4.53215E+01



 n o d a l   p r i n t   o u t   f o r   t i m e  s t e p    8601                              ( at time 4.2995697E+00 )

 nodal point  x-rot      y-rot       z-rot       x-rot vel   y-rot vel   z-rot vel   x-rot acc   y-rot acc   z-rot acc
    22626 -5.01593E-03-6.52867E-05-2.04998E-04-5.01697E-03-7.74262E-06-2.48434E-05-2.82460E-03-1.83990E-04 1.09782E-04



 n o d a l   p r i n t   o u t   f o r   t i m e  s t e p    8801                              ( at time 4.3995597E+00 )

 nodal point  x-disp     y-disp      z-disp      x-vel       y-vel       z-vel      x-accl      y-accl      z-accl      x-coor      y-coor      z-coor
    22626 -1.54771E-02 1.00831E+00-3.44258E-01-4.46013E-03 8.35239E-01-4.06614E-02 1.27982E-02 4.31797E-01 1.06145E-01 4.64390E+00-2.71825E+01-4.53260E+01



 n o d a l   p r i n t   o u t   f o r   t i m e  s t e p    8801                              ( at time 4.3995597E+00 )

 nodal point  x-rot      y-rot       z-rot       x-rot vel   y-rot vel   z-rot vel   x-rot acc   y-rot acc   z-rot acc
    22626 -5.53402E-03-6.48728E-05-2.07369E-04-5.33582E-03 1.53619E-05-5.82342E-06-3.18884E-03 2.31069E-04 1.90219E-04



 n o d a l   p r i n t   o u t   f o r   t i m e  s t e p    9001                              ( at time 4.4995497E+00 )

 nodal point  x-disp     y-disp      z-disp      x-vel       y-vel       z-vel      x-accl      y-accl      z-accl      x-coor      y-coor      z-coor
    22626 -1.57837E-02 1.09401E+00-3.47776E-01-2.33487E-03 8.78228E-01-3.05064E-02 2.12547E-02 4.29934E-01 1.01560E-01 4.64359E+00-2.70968E+01-4.53295E+01



 n o d a l   p r i n t   o u t   f o r   t i m e  s t e p    9001                              ( at time 4.4995497E+00 )

 nodal point  x-rot      y-rot       z-rot       x-rot vel   y-rot vel   z-rot vel   x-rot acc   y-rot acc   z-rot acc
    22626 -6.08134E-03-6.16980E-05-2.06282E-04-5.61315E-03 3.74818E-05 1.95660E-05-2.77362E-03 2.21220E-04 2.53919E-04



 n o d a l   p r i n t   o u t   f o r   t i m e  s t e p    9201                              ( at time 4.5995397E+00 )

 nodal point  x-disp     y-disp      z-disp      x-vel       y-vel       z-vel      x-accl      y-accl      z-accl      x-coor      y-coor      z-coor
    22626 -1.60618E-02 1.18399E+00-3.50301E-01-2.83411E-03 9.21563E-01-2.00596E-02-4.99292E-03 4.33393E-01 1.04479E-01 4.64331E+00-2.70068E+01-4.53320E+01



 n o d a l   p r i n t   o u t   f o r   t i m e  s t e p    9201                              ( at time 4.5995397E+00 )

 nodal point  x-rot      y-rot       z-rot       x-rot vel   y-rot vel   z-rot vel   x-rot acc   y-rot acc   z-rot acc
    22626 -6.65602E-03-5.95016E-05-2.04375E-04-5.87456E-03 1.40664E-05 1.32032E-05-2.61437E-03-2.34178E-04-6.36345E-05



 n o d a l   p r i n t   o u t   f o r   t i m e  s t e p    9401                              ( at time 4.6995297E+00 )

 nodal point  x-disp     y-disp      z-disp      x-vel       y-vel       z-vel      x-accl      y-accl      z-accl      x-coor      y-coor      z-coor
    22626 -1.63462E-02 1.27810E+00-3.51759E-01-2.58483E-03 9.60951E-01-7.53773E-03 2.49306E-03 3.93919E-01 1.25231E-01 4.64303E+00-2.69127E+01-4.53335E+01



 n o d a l   p r i n t   o u t   f o r   t i m e  s t e p    9401                              ( at time 4.6995297E+00 )

 nodal point  x-rot      y-rot       z-rot       x-rot vel   y-rot vel   z-rot vel   x-rot acc   y-rot acc   z-rot acc
    22626 -7.25707E-03-5.78999E-05-2.02078E-04-6.13476E-03 3.45310E-05 2.95188E-05-2.60222E-03 2.04667E-04 1.63173E-04



 n o d a l   p r i n t   o u t   f o r   t i m e  s t e p    9601                              ( at time 4.7995197E+00 )

 nodal point  x-disp     y-disp      z-disp      x-vel       y-vel       z-vel      x-accl      y-accl      z-accl      x-coor      y-coor      z-coor
    22626 -1.64978E-02 1.37582E+00-3.51828E-01-2.10017E-03 9.96982E-01 5.27826E-03 4.84701E-03 3.60349E-01 1.28173E-01 4.64288E+00-2.68150E+01-4.53335E+01



 n o d a l   p r i n t   o u t   f o r   t i m e  s t e p    9601                              ( at time 4.7995197E+00 )

 nodal point  x-rot      y-rot       z-rot       x-rot vel   y-rot vel   z-rot vel   x-rot acc   y-rot acc   z-rot acc
    22626 -7.88071E-03-5.33131E-05-1.98270E-04-6.34614E-03 4.74110E-05 3.64309E-05-2.11398E-03 1.28813E-04 6.91283E-05



 n o d a l   p r i n t   o u t   f o r   t i m e  s t e p    9801                              ( at time 4.8995097E+00 )

 nodal point  x-disp     y-disp      z-disp      x-vel       y-vel       z-vel      x-accl      y-accl      z-accl      x-coor      y-coor      z-coor
    22626 -1.66068E-02 1.47743E+00-3.50763E-01-6.72765E-04 1.03272E+00 1.62996E-02 1.42755E-02 3.57365E-01 1.10224E-01 4.64277E+00-2.67134E+01-4.53325E+01



 n o d a l   p r i n t   o u t   f o r   t i m e  s t e p    9801                              ( at time 4.8995097E+00 )

 nodal point  x-rot      y-rot       z-rot       x-rot vel   y-rot vel   z-rot vel   x-rot acc   y-rot acc   z-rot acc
    22626 -8.52466E-03-4.91556E-05-1.93789E-04-6.51945E-03 2.87168E-05 5.47612E-05-1.73333E-03-1.86960E-04 1.83321E-04



 n o d a l   p r i n t   o u t   f o r   t i m e  s t e p   10001                              ( at time 4.9994997E+00 )

 nodal point  x-disp     y-disp      z-disp      x-vel       y-vel       z-vel      x-accl      y-accl      z-accl      x-coor      y-coor      z-coor
    22626 -1.66322E-02 1.58265E+00-3.48514E-01-7.30540E-04 1.06982E+00 2.81187E-02-5.77804E-04 3.71083E-01 1.18203E-01 4.64274E+00-2.66082E+01-4.53302E+01



 n o d a l   p r i n t   o u t   f o r   t i m e  s t e p   10001                              ( at time 4.9994997E+00 )

 nodal point  x-rot      y-rot       z-rot       x-rot vel   y-rot vel   z-rot vel   x-rot acc   y-rot acc   z-rot acc
    22626 -9.18739E-03-4.56480E-05-1.86520E-04-6.70202E-03 4.73547E-05 7.36833E-05-1.82582E-03 1.86397E-04 1.89240E-04



 n o d a l   p r i n t   o u t   f o r   t i m e  s t e p   10202                              ( at time 5.0999896E+00 )

 nodal point  x-disp     y-disp      z-disp      x-vel       y-vel       z-vel      x-accl      y-accl      z-accl      x-coor      y-coor      z-coor
    22626 -1.67443E-02 1.69201E+00-3.45048E-01-7.10811E-04 1.10614E+00 4.19774E-02 1.96324E-04 3.61443E-01 1.37911E-01 4.64263E+00-2.64988E+01-4.53268E+01



 n o d a l   p r i n t   o u t   f o r   t i m e  s t e p   10202                              ( at time 5.0999896E+00 )

 nodal point  x-rot      y-rot       z-rot       x-rot vel   y-rot vel   z-rot vel   x-rot acc   y-rot acc   z-rot acc
    22626 -9.87232E-03-4.11192E-05-1.80527E-04-6.89368E-03 4.98336E-05 4.31540E-05-1.90731E-03 2.46687E-05-3.03806E-04



 n o d a l   p r i n t   o u t   f o r   t i m e  s t e p   10402                              ( at time 5.1999796E+00 )

 nodal point  x-disp     y-disp      z-disp      x-vel       y-vel       z-vel      x-accl      y-accl      z-accl      x-coor      y-coor      z-coor
    22626 -1.67843E-02 1.80428E+00-3.40108E-01-6.59294E-04 1.14052E+00 5.61613E-02 5.15225E-04 3.43822E-01 1.41853E-01 4.64259E+00-2.63865E+01-4.53218E+01



 n o d a l   p r i n t   o u t   f o r   t i m e  s t e p   10402                              ( at time 5.1999796E+00 )

 nodal point  x-rot      y-rot       z-rot       x-rot vel   y-rot vel   z-rot vel   x-rot acc   y-rot acc   z-rot acc
    22626 -1.05699E-02-3.65233E-05-1.74428E-04-7.02797E-03 5.86954E-05 8.15362E-05-1.34301E-03 8.86263E-05 3.83860E-04



 n o d a l   p r i n t   o u t   f o r   t i m e  s t e p   10602                              ( at time 5.2999696E+00 )

 nodal point  x-disp     y-disp      z-disp      x-vel       y-vel       z-vel      x-accl      y-accl      z-accl      x-coor      y-coor      z-coor
    22626 -1.68000E-02 1.92000E+00-3.33947E-01 2.61163E-04 1.17475E+00 6.70746E-02 9.20549E-03 3.42286E-01 1.09144E-01 4.64258E+00-2.62708E+01-4.53157E+01



 n o d a l   p r i n t   o u t   f o r   t i m e  s t e p   10602                              ( at time 5.2999696E+00 )

 nodal point  x-rot      y-rot       z-rot       x-rot vel   y-rot vel   z-rot vel   x-rot acc   y-rot acc   z-rot acc
    22626 -1.12790E-02-3.16832E-05-1.65734E-04-7.17397E-03 4.65671E-05 9.62802E-05-1.46017E-03-1.21295E-04 1.47454E-04



 n o d a l   p r i n t   o u t   f o r   t i m e  s t e p   10802                              ( at time 5.3999596E+00 )

 nodal point  x-disp     y-disp      z-disp      x-vel       y-vel       z-vel      x-accl      y-accl      z-accl      x-coor      y-coor      z-coor
    22626 -1.67919E-02 2.03911E+00-3.26313E-01-3.73268E-04 1.20674E+00 8.41632E-02-6.34495E-03 3.19965E-01 1.70903E-01 4.64258E+00-2.61517E+01-4.53080E+01



 n o d a l   p r i n t   o u t   f o r   t i m e  s t e p   10802                              ( at time 5.3999596E+00 )

 nodal point  x-rot      y-rot       z-rot       x-rot vel   y-rot vel   z-rot vel   x-rot acc   y-rot acc   z-rot acc
    22626 -1.20030E-02-2.67956E-05-1.56596E-04-7.31046E-03 5.82502E-05 9.17193E-05-1.36500E-03 1.16843E-04-4.56137E-05



 n o d a l   p r i n t   o u t   f o r   t i m e  s t e p   11002                              ( at time 5.4999496E+00 )

 nodal point  x-disp     y-disp      z-disp      x-vel       y-vel       z-vel      x-accl      y-accl      z-accl      x-coor      y-coor      z-coor
    22626 -1.68359E-02 2.16145E+00-3.17225E-01-2.35394E-04 1.24071E+00 9.76877E-02 1.37889E-03 3.39700E-01 1.35259E-01 4.64254E+00-2.60294E+01-4.52989E+01



 n o d a l   p r i n t   o u t   f o r   t i m e  s t e p   11002                              ( at time 5.4999496E+00 )

 nodal point  x-rot      y-rot       z-rot       x-rot vel   y-rot vel   z-rot vel   x-rot acc   y-rot acc   z-rot acc
    22626 -1.27382E-02-2.18968E-05-1.48735E-04-7.40574E-03 4.12963E-05 8.33172E-05-9.52872E-04-1.69556E-04-8.40292E-05



 n o d a l   p r i n t   o u t   f o r   t i m e  s t e p   11202                              ( at time 5.5999396E+00 )

 nodal point  x-disp     y-disp      z-disp      x-vel       y-vel       z-vel      x-accl      y-accl      z-accl      x-coor      y-coor      z-coor
    22626 -1.69354E-02 2.28705E+00-3.06521E-01-1.11650E-03 1.27187E+00 1.16212E-01-8.81191E-03 3.11672E-01 1.85259E-01 4.64244E+00-2.59038E+01-4.52882E+01



 n o d a l   p r i n t   o u t   f o r   t i m e  s t e p   11202                              ( at time 5.5999396E+00 )

 nodal point  x-rot      y-rot       z-rot       x-rot vel   y-rot vel   z-rot vel   x-rot acc   y-rot acc   z-rot acc
    22626 -1.34826E-02-1.74573E-05-1.40069E-04-7.47828E-03 5.55791E-05 9.30796E-05-7.25480E-04 1.42842E-04 9.76332E-05



 n o d a l   p r i n t   o u t   f o r   t i m e  s t e p   11402                              ( at time 5.6999296E+00 )

 nodal point  x-disp     y-disp      z-disp      x-vel       y-vel       z-vel      x-accl      y-accl      z-accl      x-coor      y-coor      z-coor
    22626 -1.69653E-02 2.41583E+00-2.94044E-01-1.13194E-04 1.30315E+00 1.33615E-01 1.00340E-02 3.12822E-01 1.74051E-01 4.64241E+00-2.57750E+01-4.52758E+01



 n o d a l   p r i n t   o u t   f o r   t i m e  s t e p   11402                              ( at time 5.6999296E+00 )

 nodal point  x-rot      y-rot       z-rot       x-rot vel   y-rot vel   z-rot vel   x-rot acc   y-rot acc   z-rot acc
    22626 -1.42346E-02-1.26702E-05-1.31567E-04-7.53144E-03 3.51958E-05 7.57222E-05-5.31641E-04-2.03852E-04-1.73590E-04



 n o d a l   p r i n t   o u t   f o r   t i m e  s t e p   11602                              ( at time 5.7999195E+00 )

 nodal point  x-disp     y-disp      z-disp      x-vel       y-vel       z-vel      x-accl      y-accl      z-accl      x-coor      y-coor      z-coor
    22626 -1.70572E-02 2.54763E+00-2.79778E-01-1.98255E-03 1.33378E+00 1.51254E-01-1.86954E-02 3.06333E-01 1.76402E-01 4.64232E+00-2.56432E+01-4.52615E+01



 n o d a l   p r i n t   o u t   f o r   t i m e  s t e p   11602                              ( at time 5.7999195E+00 )

 nodal point  x-rot      y-rot       z-rot       x-rot vel   y-rot vel   z-rot vel   x-rot acc   y-rot acc   z-rot acc
    22626 -1.49924E-02-8.76547E-06-1.24918E-04-7.60622E-03 3.46853E-05 6.29890E-05-7.47886E-04-5.10569E-06-1.27345E-04



 n o d a l   p r i n t   o u t   f o r   t i m e  s t e p   11802                              ( at time 5.8999095E+00 )

 nodal point  x-disp     y-disp      z-disp      x-vel       y-vel       z-vel      x-accl      y-accl      z-accl      x-coor      y-coor      z-coor
    22626 -1.72645E-02 2.68252E+00-2.63830E-01-1.55547E-03 1.36313E+00 1.67182E-01 4.27118E-03 2.93556E-01 1.59302E-01 4.64211E+00-2.55083E+01-4.52456E+01



 n o d a l   p r i n t   o u t   f o r   t i m e  s t e p   11802                              ( at time 5.8999095E+00 )

 nodal point  x-rot      y-rot       z-rot       x-rot vel   y-rot vel   z-rot vel   x-rot acc   y-rot acc   z-rot acc
    22626 -1.57554E-02-5.40242E-06-1.18317E-04-7.65195E-03 3.88542E-05 6.50088E-05-4.57363E-04 4.16936E-05 2.02002E-05



 n o d a l   p r i n t   o u t   f o r   t i m e  s t e p   12002                              ( at time 5.9998995E+00 )

 nodal point  x-disp     y-disp      z-disp      x-vel       y-vel       z-vel      x-accl      y-accl      z-accl      x-coor      y-coor      z-coor
    22626 -1.73680E-02 2.82029E+00-2.46090E-01-1.01874E-03 1.39143E+00 1.87512E-01 5.36784E-03 2.83049E-01 2.03316E-01 4.64201E+00-2.53705E+01-4.52278E+01



 n o d a l   p r i n t   o u t   f o r   t i m e  s t e p   12002                              ( at time 5.9998995E+00 )

 nodal point  x-rot      y-rot       z-rot       x-rot vel   y-rot vel   z-rot vel   x-rot acc   y-rot acc   z-rot acc
    22626 -1.65199E-02-8.17814E-07-1.11808E-04-7.65166E-03 4.43689E-05 6.55373E-05 2.93396E-06 5.51523E-05 5.28535E-06



 n o d a l   p r i n t   o u t   f o r   t i m e  s t e p   12202                              ( at time 6.0998895E+00 )

 nodal point  x-disp     y-disp      z-disp      x-vel       y-vel       z-vel      x-accl      y-accl      z-accl      x-coor      y-coor      z-coor
    22626 -1.75411E-02 2.96086E+00-2.26300E-01-2.43537E-03 1.41922E+00 2.07456E-01-1.41676E-02 2.77911E-01 1.99463E-01 4.64183E+00-2.52300E+01-4.52080E+01



 n o d a l   p r i n t   o u t   f o r   t i m e  s t e p   12202                              ( at time 6.0998895E+00 )

 nodal point  x-rot      y-rot       z-rot       x-rot vel   y-rot vel   z-rot vel   x-rot acc   y-rot acc   z-rot acc
    22626 -1.72852E-02 2.10009E-06-1.06410E-04-7.65110E-03 2.63976E-05 5.00309E-05 5.56519E-06-1.79730E-04-1.55079E-04



 n o d a l   p r i n t   o u t   f o r   t i m e  s t e p   12402                              ( at time 6.1998795E+00 )

 nodal point  x-disp     y-disp      z-disp      x-vel       y-vel       z-vel      x-accl      y-accl      z-accl      x-coor      y-coor      z-coor
    22626 -1.77950E-02 3.10411E+00-2.04672E-01-1.89873E-03 1.44646E+00 2.25783E-01 5.36699E-03 2.72446E-01 1.83284E-01 4.64158E+00-2.50867E+01-4.51864E+01



 n o d a l   p r i n t   o u t   f o r   t i m e  s t e p   12402                              ( at time 6.1998795E+00 )

 nodal point  x-rot      y-rot       z-rot       x-rot vel   y-rot vel   z-rot vel   x-rot acc   y-rot acc   z-rot acc
    22626 -1.80503E-02 5.13881E-06-1.02064E-04-7.64043E-03 3.53037E-05 4.19863E-05 1.06736E-04 8.90699E-05-8.04540E-05



 n o d a l   p r i n t   o u t   f o r   t i m e  s t e p   12602                              ( at time 6.2998695E+00 )

 nodal point  x-disp     y-disp      z-disp      x-vel       y-vel       z-vel      x-accl      y-accl      z-accl      x-coor      y-coor      z-coor
    22626 -1.79652E-02 3.25001E+00-1.81056E-01-1.80560E-03 1.47206E+00 2.46655E-01 9.31419E-04 2.55963E-01 2.08746E-01 4.64141E+00-2.49408E+01-4.51628E+01



 n o d a l   p r i n t   o u t   f o r   t i m e  s t e p   12602                              ( at time 6.2998695E+00 )

 nodal point  x-rot      y-rot       z-rot       x-rot vel   y-rot vel   z-rot vel   x-rot acc   y-rot acc   z-rot acc
    22626 -1.88133E-02 8.87756E-06-9.64262E-05-7.60124E-03 3.54870E-05 4.58125E-05 3.91866E-04 1.83322E-06 3.82655E-05



 n o d a l   p r i n t   o u t   f o r   t i m e  s t e p   12802                              ( at time 6.3998595E+00 )

 nodal point  x-disp     y-disp      z-disp      x-vel       y-vel       z-vel      x-accl      y-accl      z-accl      x-coor      y-coor      z-coor
    22626 -1.81639E-02 3.39837E+00-1.55326E-01-2.45555E-03 1.49476E+00 2.68722E-01-6.50017E-03 2.27081E-01 2.20693E-01 4.64121E+00-2.47925E+01-4.51370E+01



 n o d a l   p r i n t   o u t   f o r   t i m e  s t e p   12802                              ( at time 6.3998595E+00 )

 nodal point  x-rot      y-rot       z-rot       x-rot vel   y-rot vel   z-rot vel   x-rot acc   y-rot acc   z-rot acc
    22626 -1.95723E-02 1.13760E-05-9.23065E-05-7.57253E-03 4.36674E-06 1.67596E-05 2.87160E-04-3.11234E-04-2.90558E-04



 n o d a l   p r i n t   o u t   f o r   t i m e  s t e p   13002                              ( at time 6.4998495E+00 )

 nodal point  x-disp     y-disp      z-disp      x-vel       y-vel       z-vel      x-accl      y-accl      z-accl      x-coor      y-coor      z-coor
    22626 -1.84736E-02 3.54869E+00-1.27129E-01-4.67399E-03 1.51311E+00 2.93868E-01-2.21867E-02 1.83531E-01 2.51483E-01 4.64090E+00-2.46421E+01-4.51088E+01



 n o d a l   p r i n t   o u t   f o r   t i m e  s t e p   13002                              ( at time 6.4998495E+00 )

 nodal point  x-rot      y-rot       z-rot       x-rot vel   y-rot vel   z-rot vel   x-rot acc   y-rot acc   z-rot acc
    22626 -2.03268E-02 1.07320E-05-9.30889E-05-7.52408E-03-8.59249E-06-3.28461E-05 4.84518E-04-1.29605E-04-4.96107E-04



 n o d a l   p r i n t   o u t   f o r   t i m e  s t e p   13202                              ( at time 6.5998395E+00 )

 nodal point  x-disp     y-disp      z-disp      x-vel       y-vel       z-vel      x-accl      y-accl      z-accl      x-coor      y-coor      z-coor
    22626 -1.89746E-02 3.70105E+00-9.65176E-02-4.69815E-03 1.53318E+00 3.18920E-01-2.41646E-04 2.00686E-01 2.50543E-01 4.64040E+00-2.44898E+01-4.50782E+01



 n o d a l   p r i n t   o u t   f o r   t i m e  s t e p   13202                              ( at time 6.5998395E+00 )

 nodal point  x-rot      y-rot       z-rot       x-rot vel   y-rot vel   z-rot vel   x-rot acc   y-rot acc   z-rot acc
    22626 -2.10769E-02 9.95281E-06-9.88241E-05-7.46338E-03 3.49855E-06-7.97712E-05 6.07057E-04 1.20922E-04-4.69297E-04



 n o d a l   p r i n t   o u t   f o r   t i m e  s t e p   13402                              ( at time 6.6998295E+00 )

 nodal point  x-disp     y-disp      z-disp      x-vel       y-vel       z-vel      x-accl      y-accl      z-accl      x-coor      y-coor      z-coor
    22626 -1.93616E-02 3.85518E+00-6.33552E-02-4.44608E-03 1.54923E+00 3.44394E-01 2.52098E-03 1.60536E-01 2.54766E-01 4.64001E+00-2.43356E+01-4.50451E+01



 n o d a l   p r i n t   o u t   f o r   t i m e  s t e p   13402                              ( at time 6.6998295E+00 )

 nodal point  x-rot      y-rot       z-rot       x-rot vel   y-rot vel   z-rot vel   x-rot acc   y-rot acc   z-rot acc
    22626 -2.18208E-02 7.88997E-06-1.06328E-04-7.38041E-03-3.51820E-05-8.86732E-05 8.29799E-04-3.86845E-04-8.90286E-05



 n o d a l   p r i n t   o u t   f o r   t i m e  s t e p   13602                              ( at time 6.7998195E+00 )

 nodal point  x-disp     y-disp      z-disp      x-vel       y-vel       z-vel      x-accl      y-accl      z-accl      x-coor      y-coor      z-coor
    22626 -1.98132E-02 4.01101E+00-2.77413E-02-5.84722E-03 1.56659E+00 3.69290E-01-1.40128E-02 1.73632E-01 2.48987E-01 4.63956E+00-2.41798E+01-4.50095E+01



 n o d a l   p r i n t   o u t   f o r   t i m e  s t e p   13602                              ( at time 6.7998195E+00 )

 nodal point  x-rot      y-rot       z-rot       x-rot vel   y-rot vel   z-rot vel   x-rot acc   y-rot acc   z-rot acc
    22626 -2.25578E-02 2.62880E-06-1.16969E-04-7.31805E-03-6.61091E-05-1.25873E-04 6.23737E-04-3.09302E-04-3.72039E-04



 n o d a l   p r i n t   o u t   f o r   t i m e  s t e p   13802                              ( at time 6.8998095E+00 )

 nodal point  x-disp     y-disp      z-disp      x-vel       y-vel       z-vel      x-accl      y-accl      z-accl      x-coor      y-coor      z-coor
    22626 -2.04456E-02 4.16850E+00 1.06562E-02-6.01219E-03 1.58250E+00 3.98673E-01-1.64991E-03 1.59121E-01 2.93856E-01 4.63893E+00-2.40223E+01-4.49711E+01



 n o d a l   p r i n t   o u t   f o r   t i m e  s t e p   13802                              ( at time 6.8998095E+00 )

 nodal point  x-rot      y-rot       z-rot       x-rot vel   y-rot vel   z-rot vel   x-rot acc   y-rot acc   z-rot acc
    22626 -2.32882E-02-3.08127E-06-1.30631E-04-7.24909E-03-5.48048E-05-1.55035E-04 6.89626E-04 1.13054E-04-2.91647E-04



 n o d a l   p r i n t   o u t   f o r   t i m e  s t e p   14002                              ( at time 6.9997995E+00 )

 nodal point  x-disp     y-disp      z-disp      x-vel       y-vel       z-vel      x-accl      y-accl      z-accl      x-coor      y-coor      z-coor
    22626 -2.10917E-02 4.32745E+00 5.18193E-02-5.86612E-03 1.59679E+00 4.24633E-01 1.46091E-03 1.42833E-01 2.59627E-01 4.63828E+00-2.38634E+01-4.49299E+01



 n o d a l   p r i n t   o u t   f o r   t i m e  s t e p   14002                              ( at time 6.9997995E+00 )

 nodal point  x-rot      y-rot       z-rot       x-rot vel   y-rot vel   z-rot vel   x-rot acc   y-rot acc   z-rot acc
    22626 -2.40094E-02-8.59623E-06-1.48966E-04-7.16606E-03-6.94460E-05-1.88679E-04 8.30419E-04-1.46426E-04-3.36476E-04



 n o d a l   p r i n t   o u t   f o r   t i m e  s t e p   14202                              ( at time 7.0997895E+00 )

 nodal point  x-disp     y-disp      z-disp      x-vel       y-vel       z-vel      x-accl      y-accl      z-accl      x-coor      y-coor      z-coor
    22626 -2.17798E-02 4.48775E+00 9.57561E-02-7.97601E-03 1.61046E+00 4.53509E-01-2.11010E-02 1.36728E-01 2.88786E-01 4.63760E+00-2.37031E+01-4.48860E+01



 n o d a l   p r i n t   o u t   f o r   t i m e  s t e p   14202                              ( at time 7.0997895E+00 )

 nodal point  x-rot      y-rot       z-rot       x-rot vel   y-rot vel   z-rot vel   x-rot acc   y-rot acc   z-rot acc
    22626 -2.47218E-02-1.62276E-05-1.68140E-04-7.09402E-03-8.41528E-05-1.88134E-04 7.20461E-04-1.47082E-04 5.45255E-06



 n o d a l   p r i n t   o u t   f o r   t i m e  s t e p   14402                              ( at time 7.1997794E+00 )

 nodal point  x-disp     y-disp      z-disp      x-vel       y-vel       z-vel      x-accl      y-accl      z-accl      x-coor      y-coor      z-coor
    22626 -2.25777E-02 4.64944E+00 1.42616E-01-7.78445E-03 1.62216E+00 4.83860E-01 1.91584E-03 1.16986E-01 3.03544E-01 4.63680E+00-2.35414E+01-4.48391E+01



 n o d a l   p r i n t   o u t   f o r   t i m e  s t e p   14402                              ( at time 7.1997794E+00 )

 nodal point  x-rot      y-rot       z-rot       x-rot vel   y-rot vel   z-rot vel   x-rot acc   y-rot acc   z-rot acc
    22626 -2.54268E-02-2.53531E-05-1.90233E-04-7.00273E-03-8.97317E-05-2.55664E-04 9.12984E-04-5.57951E-05-6.75362E-04



 n o d a l   p r i n t   o u t   f o r   t i m e  s t e p   14602                              ( at time 7.2997694E+00 )

 nodal point  x-disp     y-disp      z-disp      x-vel       y-vel       z-vel      x-accl      y-accl      z-accl      x-coor      y-coor      z-coor
    22626 -2.34263E-02 4.81225E+00 1.92707E-01-8.35998E-03 1.63343E+00 5.17334E-01-5.75588E-03 1.12779E-01 3.34772E-01 4.63595E+00-2.33786E+01-4.47890E+01



 n o d a l   p r i n t   o u t   f o r   t i m e  s t e p   14602                              ( at time 7.2997694E+00 )

 nodal point  x-rot      y-rot       z-rot       x-rot vel   y-rot vel   z-rot vel   x-rot acc   y-rot acc   z-rot acc
    22626 -2.61218E-02-3.41557E-05-2.15526E-04-6.88585E-03-7.84694E-05-2.45440E-04 1.16886E-03 1.12635E-04 1.02247E-04



 n o d a l   p r i n t   o u t   f o r   t i m e  s t e p   14802                              ( at time 7.3997594E+00 )

 nodal point  x-disp     y-disp      z-disp      x-vel       y-vel       z-vel      x-accl      y-accl      z-accl      x-coor      y-coor      z-coor
    22626 -2.42195E-02 4.97615E+00 2.45909E-01-7.70733E-03 1.64467E+00 5.48029E-01 6.52717E-03 1.12364E-01 3.06981E-01 4.63516E+00-2.32147E+01-4.47358E+01



 n o d a l   p r i n t   o u t   f o r   t i m e  s t e p   14802                              ( at time 7.3997594E+00 )

 nodal point  x-rot      y-rot       z-rot       x-rot vel   y-rot vel   z-rot vel   x-rot acc   y-rot acc   z-rot acc
    22626 -2.68063E-02-4.28243E-05-2.40460E-04-6.78709E-03-9.07353E-05-2.64161E-04 9.87740E-04-1.22671E-04-1.87232E-04



 n o d a l   p r i n t   o u t   f o r   t i m e  s t e p   15002                              ( at time 7.4997494E+00 )

 nodal point  x-disp     y-disp      z-disp      x-vel       y-vel       z-vel      x-accl      y-accl      z-accl      x-coor      y-coor      z-coor
    22626 -2.50244E-02 5.14103E+00 3.02467E-01-9.32413E-03 1.65401E+00 5.84479E-01-1.61696E-02 9.34762E-02 3.64537E-01 4.63435E+00-2.30498E+01-4.46793E+01



 n o d a l   p r i n t   o u t   f o r   t i m e  s t e p   15002                              ( at time 7.4997494E+00 )

 nodal point  x-rot      y-rot       z-rot       x-rot vel   y-rot vel   z-rot vel   x-rot acc   y-rot acc   z-rot acc
    22626 -2.74829E-02-5.33972E-05-2.68188E-04-6.70605E-03-1.20478E-04-2.88766E-04 8.10520E-04-2.97457E-04-2.46077E-04



 n o d a l   p r i n t   o u t   f o r   t i m e  s t e p   15202                              ( at time 7.5997394E+00 )

 nodal point  x-disp     y-disp      z-disp      x-vel       y-vel       z-vel      x-accl      y-accl      z-accl      x-coor      y-coor      z-coor
    22626 -2.59255E-02 5.30678E+00 3.62457E-01-8.75041E-03 1.66204E+00 6.15344E-01 5.73781E-03 8.02312E-02 3.08684E-01 4.63345E+00-2.28840E+01-4.46193E+01



 n o d a l   p r i n t   o u t   f o r   t i m e  s t e p   15202                              ( at time 7.5997394E+00 )

 nodal point  x-rot      y-rot       z-rot       x-rot vel   y-rot vel   z-rot vel   x-rot acc   y-rot acc   z-rot acc
    22626 -2.81491E-02-6.44580E-05-2.97078E-04-6.59797E-03-1.05355E-04-2.95546E-04 1.08090E-03 1.51246E-04-6.77990E-05



 n o d a l   p r i n t   o u t   f o r   t i m e  s t e p   15402                              ( at time 7.6997294E+00 )

 nodal point  x-disp     y-disp      z-disp      x-vel       y-vel       z-vel      x-accl      y-accl      z-accl      x-coor      y-coor      z-coor
    22626 -2.67859E-02 5.47339E+00 4.25660E-01-7.79644E-03 1.66905E+00 6.50531E-01 9.54064E-03 7.01129E-02 3.51909E-01 4.63259E+00-2.27174E+01-4.45561E+01



 n o d a l   p r i n t   o u t   f o r   t i m e  s t e p   15402                              ( at time 7.6997294E+00 )

 nodal point  x-rot      y-rot       z-rot       x-rot vel   y-rot vel   z-rot vel   x-rot acc   y-rot acc   z-rot acc
    22626 -2.88058E-02-7.46532E-05-3.27879E-04-6.53597E-03-1.10758E-04-3.07477E-04 6.20002E-04-5.40324E-05-1.19330E-04



 n o d a l   p r i n t   o u t   f o r   t i m e  s t e p   15602                              ( at time 7.7997194E+00 )

 nodal point  x-disp     y-disp      z-disp      x-vel       y-vel       z-vel      x-accl      y-accl      z-accl      x-coor      y-coor      z-coor
    22626 -2.76538E-02 5.64064E+00 4.92702E-01-9.38914E-03 1.67608E+00 6.87988E-01-1.59286E-02 7.03203E-02 3.74604E-01 4.63172E+00-2.25502E+01-4.44890E+01



 n o d a l   p r i n t   o u t   f o r   t i m e  s t e p   15602                              ( at time 7.7997194E+00 )

 nodal point  x-rot      y-rot       z-rot       x-rot vel   y-rot vel   z-rot vel   x-rot acc   y-rot acc   z-rot acc
    22626 -2.94542E-02-8.60752E-05-3.58439E-04-6.45587E-03-1.16617E-04-3.13388E-04 8.01107E-04-5.85954E-05-5.91132E-05



 n o d a l   p r i n t   o u t   f o r   t i m e  s t e p   15802                              ( at time 7.8997094E+00 )

 nodal point  x-disp     y-disp      z-disp      x-vel       y-vel       z-vel      x-accl      y-accl      z-accl      x-coor      y-coor      z-coor
    22626 -2.86684E-02 5.80860E+00 5.63174E-01-9.13057E-03 1.68350E+00 7.22224E-01 2.58593E-03 7.42701E-02 3.42389E-01 4.63071E+00-2.23822E+01-4.44185E+01



 n o d a l   p r i n t   o u t   f o r   t i m e  s t e p   15802                              ( at time 7.8997094E+00 )

 nodal point  x-rot      y-rot       z-rot       x-rot vel   y-rot vel   z-rot vel   x-rot acc   y-rot acc   z-rot acc
    22626 -3.00935E-02-9.82343E-05-3.91905E-04-6.34901E-03-1.28217E-04-3.59938E-04 1.06868E-03-1.16014E-04-4.65545E-04



 n o d a l   p r i n t   o u t   f o r   t i m e  s t e p   16002                              ( at time 7.9996994E+00 )

 nodal point  x-disp     y-disp      z-disp      x-vel       y-vel       z-vel      x-accl      y-accl      z-accl      x-coor      y-coor      z-coor
    22626 -2.96384E-02 5.97711E+00 6.37256E-01-1.06320E-02 1.68809E+00 7.59733E-01-1.50153E-02 4.58225E-02 3.75134E-01 4.62974E+00-2.22137E+01-4.43445E+01



 n o d a l   p r i n t   o u t   f o r   t i m e  s t e p   16002                              ( at time 7.9996994E+00 )

 nodal point  x-rot      y-rot       z-rot       x-rot vel   y-rot vel   z-rot vel   x-rot acc   y-rot acc   z-rot acc
    22626 -3.07237E-02-1.09578E-04-4.25529E-04-6.26395E-03-1.02825E-04-3.17835E-04 8.50682E-04 2.53942E-04 4.21070E-04



 n o d a l   p r i n t   o u t   f o r   t i m e  s t e p   16202                              ( at time 8.0996894E+00 )

 nodal point  x-disp     y-disp      z-disp      x-vel       y-vel       z-vel      x-accl      y-accl      z-accl      x-coor      y-coor      z-coor
    22626 -3.05553E-02 6.14626E+00 7.15037E-01-8.58279E-03 1.69317E+00 7.96435E-01 2.04938E-02 5.08539E-02 3.67053E-01 4.62882E+00-2.20446E+01-4.42667E+01



 n o d a l   p r i n t   o u t   f o r   t i m e  s t e p   16202                              ( at time 8.0996894E+00 )

 nodal point  x-rot      y-rot       z-rot       x-rot vel   y-rot vel   z-rot vel   x-rot acc   y-rot acc   z-rot acc
    22626 -3.13472E-02-1.19271E-04-4.58333E-04-6.19512E-03-1.17728E-04-3.36623E-04 6.88438E-04-1.49043E-04-1.87900E-04



 n o d a l   p r i n t   o u t   f o r   t i m e  s t e p   16402                              ( at time 8.1996794E+00 )

 nodal point  x-disp     y-disp      z-disp      x-vel       y-vel       z-vel      x-accl      y-accl      z-accl      x-coor      y-coor      z-coor
    22626 -3.14978E-02 6.31575E+00 7.96636E-01-9.12953E-03 1.69789E+00 8.35099E-01-5.46800E-03 4.71425E-02 3.86678E-01 4.62788E+00-2.18751E+01-4.41851E+01



 n o d a l   p r i n t   o u t   f o r   t i m e  s t e p   16402                              ( at time 8.1996794E+00 )

 nodal point  x-rot      y-rot       z-rot       x-rot vel   y-rot vel   z-rot vel   x-rot acc   y-rot acc   z-rot acc
    22626 -3.19626E-02-1.31328E-04-4.92342E-04-6.11490E-03-1.08987E-04-3.37953E-04 8.02206E-04 8.74207E-05-1.32986E-05



 n o d a l   p r i n t   o u t   f o r   t i m e  s t e p   16602                              ( at time 8.2996694E+00 )

 nodal point  x-disp     y-disp      z-disp      x-vel       y-vel       z-vel      x-accl      y-accl      z-accl      x-coor      y-coor      z-coor
    22626 -3.23910E-02 6.48569E+00 8.81964E-01-8.11646E-03 1.70219E+00 8.72331E-01 1.01318E-02 4.30961E-02 3.72361E-01 4.62698E+00-2.17051E+01-4.40998E+01



 n o d a l   p r i n t   o u t   f o r   t i m e  s t e p   16602                              ( at time 8.2996694E+00 )

 nodal point  x-rot      y-rot       z-rot       x-rot vel   y-rot vel   z-rot vel   x-rot acc   y-rot acc   z-rot acc
    22626 -3.25703E-02-1.41427E-04-5.23843E-04-6.02873E-03-9.56233E-05-3.25903E-04 8.61840E-04 1.33647E-04 1.20511E-04



 n o d a l   p r i n t   o u t   f o r   t i m e  s t e p   16802                              ( at time 8.3996594E+00 )

 nodal point  x-disp     y-disp      z-disp      x-vel       y-vel       z-vel      x-accl      y-accl      z-accl      x-coor      y-coor      z-coor
    22626 -3.31938E-02 6.65609E+00 9.71065E-01-9.01708E-03 1.70583E+00 9.10314E-01-9.00718E-03 3.63589E-02 3.79868E-01 4.62618E+00-2.15347E+01-4.40107E+01



 n o d a l   p r i n t   o u t   f o r   t i m e  s t e p   16802                              ( at time 8.3996594E+00 )

 nodal point  x-rot      y-rot       z-rot       x-rot vel   y-rot vel   z-rot vel   x-rot acc   y-rot acc   z-rot acc
    22626 -3.31711E-02-1.51570E-04-5.56460E-04-5.96571E-03-1.11026E-04-3.34669E-04 6.30280E-04-1.54043E-04-8.76644E-05



 n o d a l   p r i n t   o u t   f o r   t i m e  s t e p   17002                              ( at time 8.4996494E+00 )

 nodal point  x-disp     y-disp      z-disp      x-vel       y-vel       z-vel      x-accl      y-accl      z-accl      x-coor      y-coor      z-coor
    22626 -3.40605E-02 6.82695E+00 1.06387E+00-8.92141E-03 1.71101E+00 9.46054E-01 9.56826E-04 5.18243E-02 3.57432E-01 4.62531E+00-2.13639E+01-4.39179E+01



 n o d a l   p r i n t   o u t   f o r   t i m e  s t e p   17002                              ( at time 8.4996494E+00 )

 nodal point  x-rot      y-rot       z-rot       x-rot vel   y-rot vel   z-rot vel   x-rot acc   y-rot acc   z-rot acc
    22626 -3.37649E-02-1.62351E-04-5.90436E-04-5.92134E-03-1.14242E-04-3.51819E-04 4.43746E-04-3.21607E-05-1.71517E-04



 n o d a l   p r i n t   o u t   f o r   t i m e  s t e p   17202                              ( at time 8.5996394E+00 )

 nodal point  x-disp     y-disp      z-disp      x-vel       y-vel       z-vel      x-accl      y-accl      z-accl      x-coor      y-coor      z-coor
    22626 -3.50217E-02 6.99836E+00 1.16046E+00-9.67673E-03 1.71657E+00 9.84977E-01-7.55397E-03 5.55452E-02 3.89276E-01 4.62435E+00-2.11925E+01-4.38213E+01



 n o d a l   p r i n t   o u t   f o r   t i m e  s t e p   17202                              ( at time 8.5996394E+00 )

 nodal point  x-rot      y-rot       z-rot       x-rot vel   y-rot vel   z-rot vel   x-rot acc   y-rot acc   z-rot acc
    22626 -3.43537E-02-1.74387E-04-6.26198E-04-5.88201E-03-1.21343E-04-3.59730E-04 3.93300E-04-7.10149E-05-7.91186E-05



 n o d a l   p r i n t   o u t   f o r   t i m e  s t e p   17402                              ( at time 8.6996293E+00 )

 nodal point  x-disp     y-disp      z-disp      x-vel       y-vel       z-vel      x-accl      y-accl      z-accl      x-coor      y-coor      z-coor
    22626 -3.59416E-02 7.17024E+00 1.26081E+00-9.24224E-03 1.72204E+00 1.02148E+00 4.34528E-03 5.47721E-02 3.65105E-01 4.62343E+00-2.10206E+01-4.37209E+01



 n o d a l   p r i n t   o u t   f o r   t i m e  s t e p   17402                              ( at time 8.6996293E+00 )

 nodal point  x-rot      y-rot       z-rot       x-rot vel   y-rot vel   z-rot vel   x-rot acc   y-rot acc   z-rot acc
    22626 -3.49354E-02-1.85718E-04-6.61342E-04-5.78438E-03-1.12596E-04-3.47258E-04 9.76348E-04 8.74759E-05 1.24725E-04



 n o d a l   p r i n t   o u t   f o r   t i m e  s t e p   17602                              ( at time 8.7996193E+00 )

 nodal point  x-disp     y-disp      z-disp      x-vel       y-vel       z-vel      x-accl      y-accl      z-accl      x-coor      y-coor      z-coor
    22626 -3.69250E-02 7.34276E+00 1.36489E+00-1.07120E-02 1.72804E+00 1.06138E+00-1.46991E-02 6.00124E-02 3.98984E-01 4.62245E+00-2.08481E+01-4.36168E+01



 n o d a l   p r i n t   o u t   f o r   t i m e  s t e p   17602                              ( at time 8.7996193E+00 )

 nodal point  x-rot      y-rot       z-rot       x-rot vel   y-rot vel   z-rot vel   x-rot acc   y-rot acc   z-rot acc
    22626 -3.55122E-02-1.96816E-04-6.98434E-04-5.75443E-03-1.11334E-04-3.98145E-04 2.99600E-04 1.26192E-05-5.08923E-04



 n o d a l   p r i n t   o u t   f o r   t i m e  s t e p   17802                              ( at time 8.8996093E+00 )

 nodal point  x-disp     y-disp      z-disp      x-vel       y-vel       z-vel      x-accl      y-accl      z-accl      x-coor      y-coor      z-coor
    22626 -3.81127E-02 7.51583E+00 1.47291E+00-1.29556E-02 1.73451E+00 1.09959E+00-2.24381E-02 6.46788E-02 3.82172E-01 4.62126E+00-2.06750E+01-4.35088E+01



 n o d a l   p r i n t   o u t   f o r   t i m e  s t e p   17802                              ( at time 8.8996093E+00 )

 nodal point  x-rot      y-rot       z-rot       x-rot vel   y-rot vel   z-rot vel   x-rot acc   y-rot acc   z-rot acc
    22626 -3.60885E-02-2.09647E-04-7.38821E-04-5.75249E-03-1.41549E-04-4.05342E-04 1.93548E-05-3.02178E-04-7.19717E-05



 n o d a l   p r i n t   o u t   f o r   t i m e  s t e p   18002                              ( at time 8.9995993E+00 )

 nodal point  x-disp     y-disp      z-disp      x-vel       y-vel       z-vel      x-accl      y-accl      z-accl      x-coor      y-coor      z-coor
    22626 -3.94128E-02 7.68936E+00 1.58482E+00-1.23064E-02 1.73820E+00 1.13894E+00 6.49225E-03 3.69026E-02 3.93494E-01 4.61996E+00-2.05015E+01-4.33969E+01



 n o d a l   p r i n t   o u t   f o r   t i m e  s t e p   18002                              ( at time 8.9995993E+00 )

 nodal point  x-rot      y-rot       z-rot       x-rot vel   y-rot vel   z-rot vel   x-rot acc   y-rot acc   z-rot acc
    22626 -3.66605E-02-2.23357E-04-7.80362E-04-5.72475E-03-1.31167E-04-4.18521E-04 2.77478E-04 1.03824E-04-1.31809E-04



 n o d a l   p r i n t   o u t   f o r   t i m e  s t e p   18202                              ( at time 9.0995893E+00 )

 nodal point  x-disp     y-disp      z-disp      x-vel       y-vel       z-vel      x-accl      y-accl      z-accl      x-coor      y-coor      z-coor
    22626 -4.06868E-02 7.86343E+00 1.70079E+00-1.33594E-02 1.74193E+00 1.18102E+00-1.05306E-02 3.73318E-02 4.20836E-01 4.61869E+00-2.03274E+01-4.32809E+01



 n o d a l   p r i n t   o u t   f o r   t i m e  s t e p   18202                              ( at time 9.0995893E+00 )

 nodal point  x-rot      y-rot       z-rot       x-rot vel   y-rot vel   z-rot vel   x-rot acc   y-rot acc   z-rot acc
    22626 -3.72334E-02-2.36054E-04-8.24777E-04-5.74398E-03-1.18866E-04-4.42929E-04-1.92347E-04 1.23025E-04-2.44102E-04



 n o d a l   p r i n t   o u t   f o r   t i m e  s t e p   18402                              ( at time 9.1995793E+00 )

 nodal point  x-disp     y-disp      z-disp      x-vel       y-vel       z-vel      x-accl      y-accl      z-accl      x-coor      y-coor      z-coor
    22626 -4.21302E-02 8.03780E+00 1.82100E+00-1.53098E-02 1.74620E+00 1.22306E+00-1.95057E-02 4.26836E-02 4.20445E-01 4.61724E+00-2.01530E+01-4.31607E+01



 n o d a l   p r i n t   o u t   f o r   t i m e  s t e p   18402                              ( at time 9.1995793E+00 )

 nodal point  x-rot      y-rot       z-rot       x-rot vel   y-rot vel   z-rot vel   x-rot acc   y-rot acc   z-rot acc
    22626 -3.78095E-02-2.51095E-04-8.72129E-04-5.76982E-03-1.69060E-04-4.68429E-04-2.58450E-04-5.01990E-04-2.55024E-04



 n o d a l   p r i n t   o u t   f o r   t i m e  s t e p   18602                              ( at time 9.2995693E+00 )

 nodal point  x-disp     y-disp      z-disp      x-vel       y-vel       z-vel      x-accl      y-accl      z-accl      x-coor      y-coor      z-coor
    22626 -4.36578E-02 8.21267E+00 1.94526E+00-1.44358E-02 1.75298E+00 1.26341E+00 8.74040E-03 6.77618E-02 4.03581E-01 4.61572E+00-1.99782E+01-4.30365E+01



 n o d a l   p r i n t   o u t   f o r   t i m e  s t e p   18602                              ( at time 9.2995693E+00 )

 nodal point  x-rot      y-rot       z-rot       x-rot vel   y-rot vel   z-rot vel   x-rot acc   y-rot acc   z-rot acc
    22626 -3.83886E-02-2.67257E-04-9.21249E-04-5.81913E-03-1.39484E-04-4.87900E-04-4.93171E-04 2.95793E-04-1.94731E-04



 n o d a l   p r i n t   o u t   f o r   t i m e  s t e p   18802                              ( at time 9.3995593E+00 )

 nodal point  x-disp     y-disp      z-disp      x-vel       y-vel       z-vel      x-accl      y-accl      z-accl      x-coor      y-coor      z-coor
    22626 -4.50854E-02 8.38796E+00 2.07374E+00-1.38898E-02 1.75525E+00 1.30632E+00 5.46102E-03 2.27045E-02 4.29084E-01 4.61429E+00-1.98029E+01-4.29080E+01



 n o d a l   p r i n t   o u t   f o r   t i m e  s t e p   18802                              ( at time 9.3995593E+00 )

 nodal point  x-rot      y-rot       z-rot       x-rot vel   y-rot vel   z-rot vel   x-rot acc   y-rot acc   z-rot acc
    22626 -3.89728E-02-2.81671E-04-9.70846E-04-5.87283E-03-1.45382E-04-5.01478E-04-5.37036E-04-5.89930E-05-1.35790E-04



 n o d a l   p r i n t   o u t   f o r   t i m e  s t e p   19002                              ( at time 9.4995493E+00 )

 nodal point  x-disp     y-disp      z-disp      x-vel       y-vel       z-vel      x-accl      y-accl      z-accl      x-coor      y-coor      z-coor
    22626 -4.65364E-02 8.56379E+00 2.20637E+00-1.49662E-02 1.76078E+00 1.34605E+00-1.07653E-02 5.53867E-02 3.97379E-01 4.61284E+00-1.96270E+01-4.27753E+01



 n o d a l   p r i n t   o u t   f o r   t i m e  s t e p   19002                              ( at time 9.4995493E+00 )

 nodal point  x-rot      y-rot       z-rot       x-rot vel   y-rot vel   z-rot vel   x-rot acc   y-rot acc   z-rot acc
    22626 -3.95629E-02-2.96679E-04-1.02018E-03-5.94331E-03-1.53083E-04-4.79223E-04-7.04803E-04-7.70097E-05 2.22573E-04



 n o d a l   p r i n t   o u t   f o r   t i m e  s t e p   19202                              ( at time 9.5995393E+00 )

 nodal point  x-disp     y-disp      z-disp      x-vel       y-vel       z-vel      x-accl      y-accl      z-accl      x-coor      y-coor      z-coor
    22626 -4.78782E-02 8.73999E+00 2.34303E+00-1.27506E-02 1.76513E+00 1.38681E+00 2.21582E-02 4.34891E-02 4.07640E-01 4.61150E+00-1.94508E+01-4.26387E+01



 n o d a l   p r i n t   o u t   f o r   t i m e  s t e p   19202                              ( at time 9.5995393E+00 )

 nodal point  x-rot      y-rot       z-rot       x-rot vel   y-rot vel   z-rot vel   x-rot acc   y-rot acc   z-rot acc
    22626 -4.01583E-02-3.11124E-04-1.06837E-03-6.00418E-03-1.39304E-04-4.88931E-04-6.08763E-04 1.37803E-04-9.70876E-05



 n o d a l   p r i n t   o u t   f o r   t i m e  s t e p   19402                              ( at time 9.6995293E+00 )

 nodal point  x-disp     y-disp      z-disp      x-vel       y-vel       z-vel      x-accl      y-accl      z-accl      x-coor      y-coor      z-coor
    22626 -4.92542E-02 8.91656E+00 2.48369E+00-1.41454E-02 1.76679E+00 1.42684E+00-1.39497E-02 1.65682E-02 4.00301E-01 4.61012E+00-1.92743E+01-4.24980E+01



 n o d a l   p r i n t   o u t   f o r   t i m e  s t e p   19402                              ( at time 9.6995293E+00 )

 nodal point  x-rot      y-rot       z-rot       x-rot vel   y-rot vel   z-rot vel   x-rot acc   y-rot acc   z-rot acc
    22626 -4.07606E-02-3.23909E-04-1.11766E-03-6.05221E-03-1.32729E-04-5.10992E-04-4.80429E-04 6.57519E-05-2.20637E-04



 n o d a l   p r i n t   o u t   f o r   t i m e  s t e p   19602                              ( at time 9.7995193E+00 )

 nodal point  x-disp     y-disp      z-disp      x-vel       y-vel       z-vel      x-accl      y-accl      z-accl      x-coor      y-coor      z-coor
    22626 -5.06073E-02 9.09358E+00 2.62823E+00-1.29685E-02 1.77284E+00 1.46509E+00 1.17705E-02 6.05358E-02 3.82623E-01 4.60877E+00-1.90972E+01-4.23535E+01



 n o d a l   p r i n t   o u t   f o r   t i m e  s t e p   19602                              ( at time 9.7995193E+00 )

 nodal point  x-rot      y-rot       z-rot       x-rot vel   y-rot vel   z-rot vel   x-rot acc   y-rot acc   z-rot acc
    22626 -4.13728E-02-3.37394E-04-1.16779E-03-6.18211E-03-1.45537E-04-4.82483E-04-1.29913E-03-1.28095E-04 2.85120E-04



 n o d a l   p r i n t   o u t   f o r   t i m e  s t e p   19802                              ( at time 9.8995093E+00 )

 nodal point  x-disp     y-disp      z-disp      x-vel       y-vel       z-vel      x-accl      y-accl      z-accl      x-coor      y-coor      z-coor
    22626 -5.18286E-02 9.27088E+00 2.77664E+00-1.19493E-02 1.77481E+00 1.50263E+00 1.01923E-02 1.97073E-02 3.75409E-01 4.60755E+00-1.89200E+01-4.22051E+01



 n o d a l   p r i n t   o u t   f o r   t i m e  s t e p   19802                              ( at time 9.8995093E+00 )

 nodal point  x-rot      y-rot       z-rot       x-rot vel   y-rot vel   z-rot vel   x-rot acc   y-rot acc   z-rot acc
    22626 -4.19927E-02-3.49032E-04-1.21447E-03-6.22552E-03-1.04794E-04-4.93344E-04-4.34129E-04 4.07472E-04-1.08619E-04



 n o d a l   p r i n t   o u t   f o r   t i m e  s t e p   20003                              ( at time 9.9999992E+00 )

 nodal point  x-disp     y-disp      z-disp      x-vel       y-vel       z-vel      x-accl      y-accl      z-accl      x-coor      y-coor      z-coor
[...]
    22626 -2.68615E-01 1.14293E-03-5.16465E-03-2.65104E-02 9.18804E-05-1.79622E-04 1.45039E-04-2.48518E-04 1.10336E-04



 n o d a l   p r i n t   o u t   f o r   t i m e  s t e p   45205                              ( at time 2.2599738E+01 )

 nodal point  x-disp     y-disp      z-disp      x-vel       y-vel       z-vel      x-accl      y-accl      z-accl      x-coor      y-coor      z-coor
    22626 -4.33961E-01 3.26197E+01 2.33037E+01-3.08626E-02 1.66390E+00 1.26304E+00 1.08862E-02-6.21018E-02 8.91350E-02 4.22541E+00 4.42890E+00-2.16780E+01



 n o d a l   p r i n t   o u t   f o r   t i m e  s t e p   45205                              ( at time 2.2599738E+01 )

 nodal point  x-rot      y-rot       z-rot       x-rot vel   y-rot vel   z-rot vel   x-rot acc   y-rot acc   z-rot acc
    22626 -2.71265E-01 1.15132E-03-5.18352E-03-2.64881E-02 7.69402E-05-1.92233E-04 2.22551E-04-1.49415E-04-1.26121E-04



 n o d a l   p r i n t   o u t   f o r   t i m e  s t e p   45405                              ( at time 2.2699728E+01 )

 nodal point  x-disp     y-disp      z-disp      x-vel       y-vel       z-vel      x-accl      y-accl      z-accl      x-coor      y-coor      z-coor
    22626 -4.37024E-01 3.27857E+01 2.34304E+01-3.03362E-02 1.65661E+00 1.27197E+00 5.26418E-03-7.29415E-02 8.93942E-02 4.22235E+00 4.59489E+00-2.15513E+01



 n o d a l   p r i n t   o u t   f o r   t i m e  s t e p   45405                              ( at time 2.2699728E+01 )

 nodal point  x-rot      y-rot       z-rot       x-rot vel   y-rot vel   z-rot vel   x-rot acc   y-rot acc   z-rot acc
    22626 -2.73912E-01 1.15930E-03-5.20307E-03-2.64552E-02 8.06889E-05-2.03359E-04 3.29278E-04 3.74910E-05-1.11271E-04



 n o d a l   p r i n t   o u t   f o r   t i m e  s t e p   45605                              ( at time 2.2799718E+01 )

 nodal point  x-disp     y-disp      z-disp      x-vel       y-vel       z-vel      x-accl      y-accl      z-accl      x-coor      y-coor      z-coor
    22626 -4.40055E-01 3.29511E+01 2.35581E+01-3.01912E-02 1.65062E+00 1.28090E+00 1.44985E-03-5.98342E-02 8.92578E-02 4.21932E+00 4.76023E+00-2.14236E+01



 n o d a l   p r i n t   o u t   f o r   t i m e  s t e p   45605                              ( at time 2.2799718E+01 )

 nodal point  x-rot      y-rot       z-rot       x-rot vel   y-rot vel   z-rot vel   x-rot acc   y-rot acc   z-rot acc
    22626 -2.76557E-01 1.16626E-03-5.22320E-03-2.64306E-02 5.08229E-05-2.02747E-04 2.45724E-04-2.98687E-04 6.11950E-06



 n o d a l   p r i n t   o u t   f o r   t i m e  s t e p   45805                              ( at time 2.2899708E+01 )

 nodal point  x-disp     y-disp      z-disp      x-vel       y-vel       z-vel      x-accl      y-accl      z-accl      x-coor      y-coor      z-coor
    22626 -4.43035E-01 3.31158E+01 2.36866E+01-2.98496E-02 1.64463E+00 1.28955E+00 3.41734E-03-5.99415E-02 8.64697E-02 4.21634E+00 4.92495E+00-2.12951E+01



 n o d a l   p r i n t   o u t   f o r   t i m e  s t e p   45805                              ( at time 2.2899708E+01 )

 nodal point  x-rot      y-rot       z-rot       x-rot vel   y-rot vel   z-rot vel   x-rot acc   y-rot acc   z-rot acc
    22626 -2.79196E-01 1.17079E-03-5.24365E-03-2.63791E-02 5.25396E-05-1.99160E-04 5.15227E-04 1.71690E-05 3.58663E-05



 n o d a l   p r i n t   o u t   f o r   t i m e  s t e p   46005                              ( at time 2.2999698E+01 )

 nodal point  x-disp     y-disp      z-disp      x-vel       y-vel       z-vel      x-accl      y-accl      z-accl      x-coor      y-coor      z-coor
    22626 -4.45953E-01 3.32799E+01 2.38159E+01-2.86629E-02 1.63912E+00 1.29819E+00 1.18676E-02-5.50845E-02 8.64156E-02 4.21342E+00 5.08911E+00-2.11658E+01



 n o d a l   p r i n t   o u t   f o r   t i m e  s t e p   46005                              ( at time 2.2999698E+01 )

 nodal point  x-rot      y-rot       z-rot       x-rot vel   y-rot vel   z-rot vel   x-rot acc   y-rot acc   z-rot acc
    22626 -2.81832E-01 1.17612E-03-5.26423E-03-2.63355E-02 5.26078E-05-2.15418E-04 4.35880E-04 6.81820E-07-1.62595E-04



 n o d a l   p r i n t   o u t   f o r   t i m e  s t e p   46205                              ( at time 2.3099688E+01 )

 nodal point  x-disp     y-disp      z-disp      x-vel       y-vel       z-vel      x-accl      y-accl      z-accl      x-coor      y-coor      z-coor
    22626 -4.48861E-01 3.34436E+01 2.39462E+01-2.91874E-02 1.63388E+00 1.30764E+00-5.24549E-03-5.23899E-02 9.45422E-02 4.21051E+00 5.25273E+00-2.10355E+01



 n o d a l   p r i n t   o u t   f o r   t i m e  s t e p   46205                              ( at time 2.3099688E+01 )

 nodal point  x-rot      y-rot       z-rot       x-rot vel   y-rot vel   z-rot vel   x-rot acc   y-rot acc   z-rot acc
    22626 -2.84462E-01 1.17988E-03-5.28560E-03-2.62692E-02 2.73011E-05-2.09945E-04 6.63622E-04-2.53095E-04 5.47374E-05



 n o d a l   p r i n t   o u t   f o r   t i m e  s t e p   46405                              ( at time 2.3199678E+01 )

 nodal point  x-disp     y-disp      z-disp      x-vel       y-vel       z-vel      x-accl      y-accl      z-accl      x-coor      y-coor      z-coor
    22626 -4.51743E-01 3.36067E+01 2.40774E+01-2.84272E-02 1.62881E+00 1.31577E+00 7.60280E-03-5.07139E-02 8.13618E-02 4.20763E+00 5.41586E+00-2.09043E+01



 n o d a l   p r i n t   o u t   f o r   t i m e  s t e p   46405                              ( at time 2.3199678E+01 )

 nodal point  x-rot      y-rot       z-rot       x-rot vel   y-rot vel   z-rot vel   x-rot acc   y-rot acc   z-rot acc
    22626 -2.87086E-01 1.18251E-03-5.30634E-03-2.62174E-02 2.55679E-05-2.08919E-04 5.17397E-04-1.73336E-05 1.02678E-05



 n o d a l   p r i n t   o u t   f o r   t i m e  s t e p   46605                              ( at time 2.3299668E+01 )

 nodal point  x-disp     y-disp      z-disp      x-vel       y-vel       z-vel      x-accl      y-accl      z-accl      x-coor      y-coor      z-coor
    22626 -4.54539E-01 3.37693E+01 2.42095E+01-2.74561E-02 1.62443E+00 1.32531E+00 9.71190E-03-4.38178E-02 9.53506E-02 4.20484E+00 5.57851E+00-2.07723E+01



 n o d a l   p r i n t   o u t   f o r   t i m e  s t e p   46605                              ( at time 2.3299668E+01 )

 nodal point  x-rot      y-rot       z-rot       x-rot vel   y-rot vel   z-rot vel   x-rot acc   y-rot acc   z-rot acc
    22626 -2.89703E-01 1.18521E-03-5.32773E-03-2.61439E-02 2.36036E-05-2.19182E-04 7.35416E-04-1.96455E-05-1.02643E-04



 n o d a l   p r i n t   o u t   f o r   t i m e  s t e p   46805                              ( at time 2.3399658E+01 )

 nodal point  x-disp     y-disp      z-disp      x-vel       y-vel       z-vel      x-accl      y-accl      z-accl      x-coor      y-coor      z-coor
    22626 -4.57345E-01 3.39316E+01 2.43425E+01-2.84413E-02 1.62039E+00 1.33447E+00-9.85292E-03-4.03894E-02 9.15742E-02 4.20203E+00 5.74073E+00-2.06393E+01



 n o d a l   p r i n t   o u t   f o r   t i m e  s t e p   46805                              ( at time 2.3399658E+01 )

 nodal point  x-rot      y-rot       z-rot       x-rot vel   y-rot vel   z-rot vel   x-rot acc   y-rot acc   z-rot acc
    22626 -2.92312E-01 1.18696E-03-5.34905E-03-2.60569E-02 1.24532E-05-2.09713E-04 8.70121E-04-1.11514E-04 9.46997E-05



 n o d a l   p r i n t   o u t   f o r   t i m e  s t e p   47005                              ( at time 2.3499648E+01 )

 nodal point  x-disp     y-disp      z-disp      x-vel       y-vel       z-vel      x-accl      y-accl      z-accl      x-coor      y-coor      z-coor
    22626 -4.60121E-01 3.40933E+01 2.44763E+01-2.74922E-02 1.61609E+00 1.34340E+00 9.49138E-03-4.30468E-02 8.93615E-02 4.19925E+00 5.90252E+00-2.05054E+01



 n o d a l   p r i n t   o u t   f o r   t i m e  s t e p   47005                              ( at time 2.3499648E+01 )

 nodal point  x-rot      y-rot       z-rot       x-rot vel   y-rot vel   z-rot vel   x-rot acc   y-rot acc   z-rot acc
    22626 -2.94914E-01 1.18760E-03-5.37072E-03-2.59816E-02 1.97032E-06-2.14442E-04 7.53080E-04-1.04838E-04-4.72976E-05



 n o d a l   p r i n t   o u t   f o r   t i m e  s t e p   47205                              ( at time 2.3599638E+01 )

 nodal point  x-disp     y-disp      z-disp      x-vel       y-vel       z-vel      x-accl      y-accl      z-accl      x-coor      y-coor      z-coor
    22626 -4.62853E-01 3.42547E+01 2.46111E+01-2.70061E-02 1.61205E+00 1.35261E+00 4.86173E-03-4.04093E-02 9.21518E-02 4.19652E+00 6.06390E+00-2.03706E+01



 n o d a l   p r i n t   o u t   f o r   t i m e  s t e p   47205                              ( at time 2.3599638E+01 )

 nodal point  x-rot      y-rot       z-rot       x-rot vel   y-rot vel   z-rot vel   x-rot acc   y-rot acc   z-rot acc
    22626 -2.97507E-01 1.18829E-03-5.39228E-03-2.58880E-02 8.78811E-06-2.17182E-04 9.35654E-04 6.81855E-05-2.73992E-05



 n o d a l   p r i n t   o u t   f o r   t i m e  s t e p   47405                              ( at time 2.3699628E+01 )

 nodal point  x-disp     y-disp      z-disp      x-vel       y-vel       z-vel      x-accl      y-accl      z-accl      x-coor      y-coor      z-coor
    22626 -4.65560E-01 3.44158E+01 2.47468E+01-2.73346E-02 1.60892E+00 1.36151E+00-3.28550E-03-3.13144E-02 8.89454E-02 4.19381E+00 6.22495E+00-2.02349E+01



 n o d a l   p r i n t   o u t   f o r   t i m e  s t e p   47405                              ( at time 2.3699628E+01 )

 nodal point  x-rot      y-rot       z-rot       x-rot vel   y-rot vel   z-rot vel   x-rot acc   y-rot acc   z-rot acc
    22626 -3.00092E-01 1.18856E-03-5.41375E-03-2.58000E-02-6.51862E-06-2.15951E-04 8.80292E-04-1.53081E-04 1.23049E-05



 n o d a l   p r i n t   o u t   f o r   t i m e  s t e p   47605                              ( at time 2.3799618E+01 )

 nodal point  x-disp     y-disp      z-disp      x-vel       y-vel       z-vel      x-accl      y-accl      z-accl      x-coor      y-coor      z-coor
    22626 -4.68278E-01 3.45765E+01 2.48833E+01-2.70462E-02 1.60524E+00 1.36931E+00 2.88498E-03-3.68219E-02 7.79870E-02 4.19110E+00 6.38563E+00-2.00984E+01



 n o d a l   p r i n t   o u t   f o r   t i m e  s t e p   47605                              ( at time 2.3799618E+01 )

 nodal point  x-rot      y-rot       z-rot       x-rot vel   y-rot vel   z-rot vel   x-rot acc   y-rot acc   z-rot acc
    22626 -3.02667E-01 1.18806E-03-5.43536E-03-2.57064E-02-1.29626E-06-2.17136E-04 9.36139E-04 5.22294E-05-1.18508E-05



 n o d a l   p r i n t   o u t   f o r   t i m e  s t e p   47805                              ( at time 2.3899608E+01 )

 nodal point  x-disp     y-disp      z-disp      x-vel       y-vel       z-vel      x-accl      y-accl      z-accl      x-coor      y-coor      z-coor
    22626 -4.70962E-01 3.47368E+01 2.50207E+01-2.63926E-02 1.60250E+00 1.37756E+00 6.53595E-03-2.73753E-02 8.25028E-02 4.18841E+00 6.54600E+00-1.99611E+01



 n o d a l   p r i n t   o u t   f o r   t i m e  s t e p   47805                              ( at time 2.3899608E+01 )

 nodal point  x-rot      y-rot       z-rot       x-rot vel   y-rot vel   z-rot vel   x-rot acc   y-rot acc   z-rot acc
    22626 -3.05232E-01 1.18756E-03-5.45702E-03-2.56051E-02-1.64923E-06-2.17704E-04 1.01356E-03-3.53008E-06-5.67489E-06



 n o d a l   p r i n t   o u t   f o r   t i m e  s t e p   48005                              ( at time 2.3999598E+01 )

 nodal point  x-disp     y-disp      z-disp      x-vel       y-vel       z-vel      x-accl      y-accl      z-accl      x-coor      y-coor      z-coor
    22626 -4.73636E-01 3.48969E+01 2.51588E+01-2.70535E-02 1.59930E+00 1.38585E+00-6.60899E-03-3.19826E-02 8.29514E-02 4.18574E+00 6.70608E+00-1.98229E+01



 n o d a l   p r i n t   o u t   f o r   t i m e  s t e p   48005                              ( at time 2.3999598E+01 )

 nodal point  x-rot      y-rot       z-rot       x-rot vel   y-rot vel   z-rot vel   x-rot acc   y-rot acc   z-rot acc
    22626 -3.07788E-01 1.18686E-03-5.47814E-03-2.55125E-02-1.07119E-05-2.05371E-04 9.26061E-04-9.06371E-05 1.23337E-04



 n o d a l   p r i n t   o u t   f o r   t i m e  s t e p   48205                              ( at time 2.4099588E+01 )

 nodal point  x-disp     y-disp      z-disp      x-vel       y-vel       z-vel      x-accl      y-accl      z-accl      x-coor      y-coor      z-coor
    22626 -4.76285E-01 3.50567E+01 2.52978E+01-2.65082E-02 1.59621E+00 1.39276E+00 5.45311E-03-3.09162E-02 6.90678E-02 4.18309E+00 6.86586E+00-1.96840E+01



 n o d a l   p r i n t   o u t   f o r   t i m e  s t e p   48205                              ( at time 2.4099588E+01 )

 nodal point  x-rot      y-rot       z-rot       x-rot vel   y-rot vel   z-rot vel   x-rot acc   y-rot acc   z-rot acc
    22626 -3.10333E-01 1.18549E-03-5.49948E-03-2.54104E-02-1.77610E-05-2.15611E-04 1.02039E-03-7.04975E-05-1.02401E-04



 n o d a l   p r i n t   o u t   f o r   t i m e  s t e p   48405                              ( at time 2.4199578E+01 )

 nodal point  x-disp     y-disp      z-disp      x-vel       y-vel       z-vel      x-accl      y-accl      z-accl      x-coor      y-coor      z-coor
    22626 -4.78914E-01 3.52162E+01 2.54374E+01-2.58578E-02 1.59396E+00 1.39982E+00 6.50480E-03-2.24901E-02 7.06298E-02 4.18046E+00 7.02534E+00-1.95443E+01



 n o d a l   p r i n t   o u t   f o r   t i m e  s t e p   48405                              ( at time 2.4199578E+01 )

 nodal point  x-rot      y-rot       z-rot       x-rot vel   y-rot vel   z-rot vel   x-rot acc   y-rot acc   z-rot acc
    22626 -3.12869E-01 1.18409E-03-5.52108E-03-2.53135E-02-1.35362E-05-2.15198E-04 9.69241E-04 4.22529E-05 4.12258E-06



 n o d a l   p r i n t   o u t   f o r   t i m e  s t e p   48605                              ( at time 2.4299568E+01 )

 nodal point  x-disp     y-disp      z-disp      x-vel       y-vel       z-vel      x-accl      y-accl      z-accl      x-coor      y-coor      z-coor
    22626 -4.81531E-01 3.53754E+01 2.55777E+01-2.63511E-02 1.59134E+00 1.40657E+00-4.93318E-03-2.62070E-02 6.75740E-02 4.17784E+00 7.18461E+00-1.94040E+01



 n o d a l   p r i n t   o u t   f o r   t i m e  s t e p   48605                              ( at time 2.4299568E+01 )

 nodal point  x-rot      y-rot       z-rot       x-rot vel   y-rot vel   z-rot vel   x-rot acc   y-rot acc   z-rot acc
    22626 -3.15395E-01 1.18215E-03-5.54205E-03-2.52061E-02-2.37708E-05-2.09688E-04 1.07410E-03-1.02355E-04 5.51115E-05



 n o d a l   p r i n t   o u t   f o r   t i m e  s t e p   48805                              ( at time 2.4399558E+01 )

 nodal point  x-disp     y-disp      z-disp      x-vel       y-vel       z-vel      x-accl      y-accl      z-accl      x-coor      y-coor      z-coor
    22626 -4.84115E-01 3.55344E+01 2.57186E+01-2.56604E-02 1.58929E+00 1.41236E+00 6.90719E-03-2.05345E-02 5.78206E-02 4.17526E+00 7.34360E+00-1.92631E+01



 n o d a l   p r i n t   o u t   f o r   t i m e  s t e p   48805                              ( at time 2.4399558E+01 )

 nodal point  x-rot      y-rot       z-rot       x-rot vel   y-rot vel   z-rot vel   x-rot acc   y-rot acc   z-rot acc
    22626 -3.17910E-01 1.17956E-03-5.56344E-03-2.51010E-02-2.47131E-05-2.14674E-04 1.05175E-03-9.42436E-06-4.98655E-05



 n o d a l   p r i n t   o u t   f o r   t i m e  s t e p   49006                              ( at time 2.4500048E+01 )

 nodal point  x-disp     y-disp      z-disp      x-vel       y-vel       z-vel      x-accl      y-accl      z-accl      x-coor      y-coor      z-coor
    22626 -4.86690E-01 3.56941E+01 2.58609E+01-2.53914E-02 1.58771E+00 1.41834E+00 2.67667E-03-1.57125E-02 5.95604E-02 4.17268E+00 7.50323E+00-1.91209E+01



 n o d a l   p r i n t   o u t   f o r   t i m e  s t e p   49006                              ( at time 2.4500048E+01 )

 nodal point  x-rot      y-rot       z-rot       x-rot vel   y-rot vel   z-rot vel   x-rot acc   y-rot acc   z-rot acc
    22626 -3.20427E-01 1.17686E-03-5.58500E-03-2.49892E-02-2.63644E-05-2.14336E-04 1.11204E-03-1.64328E-05 3.36310E-06



 n o d a l   p r i n t   o u t   f o r   t i m e  s t e p   49206                              ( at time 2.4600038E+01 )

 nodal point  x-disp     y-disp      z-disp      x-vel       y-vel       z-vel      x-accl      y-accl      z-accl      x-coor      y-coor      z-coor
    22626 -4.89252E-01 3.58527E+01 2.60030E+01-2.56184E-02 1.58588E+00 1.42406E+00-2.26997E-03-1.82657E-02 5.71434E-02 4.17012E+00 7.66188E+00-1.89787E+01



 n o d a l   p r i n t   o u t   f o r   t i m e  s t e p   49206                              ( at time 2.4600038E+01 )

 nodal point  x-rot      y-rot       z-rot       x-rot vel   y-rot vel   z-rot vel   x-rot acc   y-rot acc   z-rot acc
    22626 -3.22921E-01 1.17363E-03-5.60627E-03-2.48812E-02-3.67729E-05-2.11088E-04 1.08054E-03-1.04094E-04 3.24762E-05



 n o d a l   p r i n t   o u t   f o r   t i m e  s t e p   49406                              ( at time 2.4700028E+01 )

 nodal point  x-disp     y-disp      z-disp      x-vel       y-vel       z-vel      x-accl      y-accl      z-accl      x-coor      y-coor      z-coor
    22626 -4.91774E-01 3.60112E+01 2.61456E+01-2.51716E-02 1.58399E+00 1.42869E+00 4.46835E-03-1.89182E-02 4.63132E-02 4.16760E+00 7.82036E+00-1.88361E+01



 n o d a l   p r i n t   o u t   f o r   t i m e  s t e p   49406                              ( at time 2.4700028E+01 )

 nodal point  x-rot      y-rot       z-rot       x-rot vel   y-rot vel   z-rot vel   x-rot acc   y-rot acc   z-rot acc
    22626 -3.25403E-01 1.17037E-03-5.62752E-03-2.47695E-02-3.31707E-05-2.11885E-04 1.11717E-03 3.60262E-05-7.96136E-06



 n o d a l   p r i n t   o u t   f o r   t i m e  s t e p   49606                              ( at time 2.4800018E+01 )

 nodal point  x-disp     y-disp      z-disp      x-vel       y-vel       z-vel      x-accl      y-accl      z-accl      x-coor      y-coor      z-coor
    22626 -4.94283E-01 3.61695E+01 2.62887E+01-2.50415E-02 1.58281E+00 1.43333E+00 1.30190E-03-1.18040E-02 4.64482E-02 4.16509E+00 7.97869E+00-1.86930E+01



 n o d a l   p r i n t   o u t   f o r   t i m e  s t e p   49606                              ( at time 2.4800018E+01 )

 nodal point  x-rot      y-rot       z-rot       x-rot vel   y-rot vel   z-rot vel   x-rot acc   y-rot acc   z-rot acc
    22626 -3.27874E-01 1.16665E-03-5.64889E-03-2.46569E-02-4.10646E-05-2.16981E-04 1.12536E-03-7.89458E-05-5.09741E-05



 n o d a l   p r i n t   o u t   f o r   t i m e  s t e p   49806                              ( at time 2.4900008E+01 )

 nodal point  x-disp     y-disp      z-disp      x-vel       y-vel       z-vel      x-accl      y-accl      z-accl      x-coor      y-coor      z-coor
    22626 -4.96805E-01 3.63277E+01 2.64323E+01-2.49634E-02 1.58177E+00 1.43815E+00 7.81149E-04-1.04045E-02 4.82160E-02 4.16257E+00 8.13690E+00-1.85494E+01



 n o d a l   p r i n t   o u t   f o r   t i m e  s t e p   49806                              ( at time 2.4900008E+01 )

 nodal point  x-rot      y-rot       z-rot       x-rot vel   y-rot vel   z-rot vel   x-rot acc   y-rot acc   z-rot acc
    22626 -3.30333E-01 1.16230E-03-5.67007E-03-2.45335E-02-4.47847E-05-2.10556E-04 1.23421E-03-3.72056E-05 6.42583E-05



 n o d a l   p r i n t   o u t   f o r   t i m e  s t e p   50006                              ( at time 2.4999998E+01 )

 nodal point  x-disp     y-disp      z-disp      x-vel       y-vel       z-vel      x-accl      y-accl      z-accl      x-coor      y-coor      z-coor
    22626 -4.99274E-01 3.64859E+01 2.65763E+01-2.45168E-02 1.58101E+00 1.44160E+00 4.46642E-03-7.60744E-03 3.44904E-02 4.16010E+00 8.29502E+00-1.84055E+01



 n o d a l   p r i n t   o u t   f o r   t i m e  s t e p   50006                              ( at time 2.4999998E+01 )

 nodal point  x-rot      y-rot       z-rot       x-rot vel   y-rot vel   z-rot vel   x-rot acc   y-rot acc   z-rot acc
    22626 -3.32780E-01 1.15829E-03-5.69126E-03-2.44178E-02-4.39700E-05-2.15046E-04 1.15739E-03 8.14749E-06-4.49033E-05
