 LSTC 50th% Full_FE H-III Dummy (Beta Version, February 17, 2019)        
                    ls-dyna smp s R16 R16.0_619_d222963 date 03/18/2025

{BEGIN LEGEND}
 Entity #        Title
        1     Upper_Neck_Force_INJURY                                              
{END LEGEND}



 line#1  section#     time        x-force     y-force     z-force    magnitude
 line#2  resultant  moments       x-moment    y-moment    z-moment   magnitude
 line#3  centroids                x           y           z            area  
           1    0.00000E+00     0.0000E+00  0.0000E+00  0.0000E+00  0.0000E+00
ac ID =   33377                 0.0000E+00  0.0000E+00  0.0000E+00  0.0000E+00
                               -3.7437E-01  1.0501E+01 -4.6940E+01  0.0000E+00

           1    1.00490E-01     1.3627E-04 -4.9880E-03  2.5983E-01  2.5988E-01
ac ID =   33377                 4.2544E-01 -1.2521E+00 -2.7100E-02  1.3227E+00
                               -3.7387E-01  1.0590E+01 -4.6886E+01  2.5147E+03

           1    2.00480E-01    -4.4265E-02  6.2033E-04  4.4136E-01  4.4357E-01
ac ID =   33377                 3.1049E-01 -1.5986E+00  2.0841E-02  1.6286E+00
                               -3.7386E-01  1.0591E+01 -4.6888E+01  2.5147E+03

           1    3.00470E-01     1.4945E-02 -3.2566E-03  2.1760E-01  2.1814E-01
ac ID =   33377                 2.7861E-02 -3.3610E-01  7.0399E-02  3.4452E-01
                               -3.7382E-01  1.0591E+01 -4.6889E+01  2.5147E+03

           1    4.00460E-01     2.9152E-03  1.0491E-02  8.7968E-02  8.8640E-02
ac ID =   33377                -4.9888E-01 -9.4334E-01 -4.3725E-03  1.0671E+00
                               -3.7383E-01  1.0592E+01 -4.6890E+01  2.5147E+03

           1    5.00450E-01    -4.0791E-02  4.4069E-03  1.6149E-01  1.6662E-01
ac ID =   33377                -3.9991E-01 -1.5066E+00 -1.0939E-01  1.5626E+00
                               -3.7385E-01  1.0594E+01 -4.6893E+01  2.5147E+03

           1    6.00440E-01    -1.0923E-02  4.0503E-03  3.4355E-01  3.4374E-01
ac ID =   33377                 9.3546E-02 -1.3206E+00 -3.4728E-02  1.3243E+00
                               -3.7385E-01  1.0595E+01 -4.6897E+01  2.5147E+03

           1    7.00430E-01     2.8556E-03 -5.2535E-03  2.9431E-01  2.9437E-01
ac ID =   33377                 1.3349E-01 -4.9433E-01  8.4229E-02  5.1892E-01
                               -3.7389E-01  1.0597E+01 -4.6901E+01  2.5147E+03

           1    8.00420E-01    -3.1094E-02 -1.0035E-03  1.0070E-01  1.0540E-01
ac ID =   33377                 8.4064E-02 -1.0554E+00  4.5996E-02  1.0597E+00
                               -3.7394E-01  1.0599E+01 -4.6905E+01  2.5147E+03

           1    9.00410E-01    -3.9333E-02  8.2362E-04  6.2350E-02  7.3725E-02
ac ID =   33377                 9.1831E-02 -1.0715E+00 -3.0036E-03  1.0755E+00
                               -3.7399E-01  1.0601E+01 -4.6909E+01  2.5147E+03

           1    1.00040E+00     1.5159E-02 -4.0546E-03  2.2047E-01  2.2102E-01
ac ID =   33377                 3.6794E-01 -2.8760E-01 -5.9571E-02  4.7079E-01
                               -3.7400E-01  1.0604E+01 -4.6915E+01  2.5147E+03

           1    1.10039E+00     6.2667E-05 -2.9804E-03  2.7125E-01  2.7127E-01
ac ID =   33377                 3.4977E-01 -8.7868E-01 -5.4502E-02  9.4731E-01
                               -3.7401E-01  1.0607E+01 -4.6921E+01  2.5147E+03

           1    1.20038E+00    -3.2540E-02 -7.2877E-04  1.2910E-01  1.3314E-01
ac ID =   33377                -1.5947E-01 -1.1712E+00  8.2828E-03  1.1821E+00
                               -3.7403E-01  1.0610E+01 -4.6927E+01  2.5147E+03

           1    1.30037E+00    -9.7732E-03  4.9708E-03  7.4646E-02  7.5447E-02
ac ID =   33377                -3.0391E-01 -8.8909E-01  1.0261E-02  9.3965E-01
                               -3.7407E-01  1.0612E+01 -4.6933E+01  2.5147E+03

           1    1.40036E+00     7.9230E-03  3.6944E-03  1.7345E-01  1.7367E-01
ac ID =   33377                -2.8735E-01 -8.3501E-01  2.9774E-02  8.8357E-01
                               -3.7409E-01  1.0616E+01 -4.6941E+01  2.5147E+03

           1    1.50035E+00    -2.6725E-02  1.3837E-03  3.2877E-01  3.2985E-01
ac ID =   33377                -1.3901E-02 -1.5791E+00 -4.8479E-02  1.5799E+00
                               -3.7413E-01  1.0620E+01 -4.6949E+01  2.5147E+03

           1    1.60034E+00    -1.3201E-02 -1.0069E-03  2.1468E-01  2.1509E-01
ac ID =   33377                -5.8001E-02 -1.2672E+00 -3.5797E-02  1.2690E+00
                               -3.7419E-01  1.0624E+01 -4.6957E+01  2.5147E+03

           1    1.70033E+00     2.1483E-02  2.0842E-03  2.8331E-02  3.5616E-02
ac ID =   33377                -1.3990E-01 -1.5399E-01  3.7140E-02  2.1134E-01
                               -3.7427E-01  1.0628E+01 -4.6965E+01  2.5147E+03

           1    1.80032E+00     1.9414E-02  2.7408E-03  1.6401E-02  2.5562E-02
ac ID =   33377                -2.1824E-02 -9.1994E-02  3.0048E-02  9.9207E-02
                               -3.7435E-01  1.0633E+01 -4.6974E+01  2.5147E+03

           1    1.90031E+00     3.7492E-02 -7.5584E-04  1.1801E-01  1.2382E-01
ac ID =   33377                 1.1406E-01  3.9760E-01 -2.9018E-01  5.0527E-01
                               -3.7442E-01  1.0639E+01 -4.6984E+01  2.5147E+03

           1    2.00030E+00     5.8882E-02 -2.4676E-04  8.1936E-02  1.0090E-01
ac ID =   33377                -3.3728E-02  1.2201E+00 -3.2994E-01  1.2644E+00
                               -3.7449E-01  1.0646E+01 -4.6995E+01  2.5147E+03

           1    2.10029E+00     5.3006E-02  5.2826E-03 -9.8610E-02  1.1208E-01
ac ID =   33377                -1.6700E-01  1.4661E+00  4.2292E-02  1.4762E+00
                               -3.7460E-01  1.0654E+01 -4.7005E+01  2.5147E+03

           1    2.20028E+00     6.4595E-02  1.1410E-02 -1.2875E-01  1.4450E-01
ac ID =   33377                -3.2057E-01  1.5664E+00  1.8652E-01  1.6097E+00
                               -3.7470E-01  1.0664E+01 -4.7017E+01  2.5147E+03

           1    2.30027E+00     8.5247E-02  7.0407E-03 -7.9479E-03  8.5906E-02
ac ID =   33377                -2.9907E-01  1.5202E+00 -2.8510E-02  1.5496E+00
                               -3.7480E-01  1.0676E+01 -4.7030E+01  2.5147E+03

           1    2.40026E+00     8.5092E-02  2.4142E-05  1.4185E-02  8.6266E-02
ac ID =   33377                -3.4209E-01  1.5022E+00 -2.9504E-01  1.5686E+00
                               -3.7496E-01  1.0690E+01 -4.7043E+01  2.5147E+03

           1    2.50025E+00     1.1437E-01  6.3701E-04 -2.0094E-01  2.3121E-01
ac ID =   33377                -2.9986E-01  2.1909E+00 -4.5882E-01  2.2584E+00
                               -3.7513E-01  1.0705E+01 -4.7056E+01  2.5147E+03

           1    2.60024E+00     1.0972E-01  1.2962E-02 -3.0306E-01  3.2257E-01
ac ID =   33377                -4.3963E-01  3.0220E+00 -1.8553E-01  3.0595E+00
                               -3.7534E-01  1.0723E+01 -4.7071E+01  2.5147E+03

           1    2.70023E+00     1.1471E-01  1.9752E-03 -2.4590E-01  2.7135E-01
ac ID =   33377                -2.4027E-01  3.3839E+00  3.2651E-01  3.4081E+00
                               -3.7557E-01  1.0744E+01 -4.7087E+01  2.5147E+03

           1    2.80022E+00     1.4629E-01 -2.7879E-03 -2.0668E-01  2.5323E-01
ac ID =   33377                 1.9410E-01  3.7818E+00  2.1813E-01  3.7931E+00
                               -3.7580E-01  1.0767E+01 -4.7103E+01  2.5147E+03

           1    2.90021E+00     1.6477E-01 -3.1652E-03 -3.0237E-01  3.4437E-01
ac ID =   33377                -6.1864E-02  4.4408E+00 -4.0236E-01  4.4594E+00
                               -3.7603E-01  1.0793E+01 -4.7119E+01  2.5147E+03

           1    3.00020E+00     1.5069E-01  6.8682E-03 -4.1611E-01  4.4261E-01
ac ID =   33377                -3.2337E-01  4.3444E+00 -3.8445E-01  4.3734E+00
                               -3.7631E-01  1.0822E+01 -4.7136E+01  2.5147E+03

           1    3.10019E+00     1.2915E-01 -4.0532E-03 -3.5177E-01  3.7475E-01
ac ID =   33377                 1.9296E-02  4.0957E+00  1.5752E-01  4.0988E+00
                               -3.7659E-01  1.0854E+01 -4.7154E+01  2.5147E+03

           1    3.20018E+00     1.8802E-01  1.5992E-03 -3.2566E-01  3.7604E-01
ac ID =   33377                -1.7275E-02  4.8947E+00  2.9427E-01  4.9036E+00
                               -3.7689E-01  1.0889E+01 -4.7173E+01  2.5147E+03

           1    3.30017E+00     1.9424E-01  8.9466E-03 -4.2472E-01  4.6711E-01
ac ID =   33377                -6.9309E-01  4.9835E+00  2.6428E-01  5.0384E+00
                               -3.7721E-01  1.0926E+01 -4.7193E+01  2.5147E+03

           1    3.40016E+00     1.6607E-01  1.6823E-03 -5.6102E-01  5.8509E-01
ac ID =   33377                -4.7213E-01  5.4002E+00 -1.8148E-01  5.4238E+00
                               -3.7759E-01  1.0967E+01 -4.7212E+01  2.5147E+03

           1    3.50015E+00     1.7541E-01  6.4929E-04 -6.1517E-01  6.3969E-01
ac ID =   33377                -2.9469E-01  6.1960E+00 -2.7152E-01  6.2090E+00
                               -3.7796E-01  1.1012E+01 -4.7233E+01  2.5147E+03

           1    3.60014E+00     2.5096E-01  8.5202E-03 -5.8201E-01  6.3387E-01
ac ID =   33377                -3.6995E-01  7.0680E+00  1.4626E-01  7.0792E+00
                               -3.7830E-01  1.1060E+01 -4.7255E+01  2.5147E+03

           1    3.70013E+00     2.4224E-01  1.2465E-03 -6.5150E-01  6.9508E-01
ac ID =   33377                -1.1064E-01  7.5099E+00  1.4227E-01  7.5121E+00
                               -3.7871E-01  1.1111E+01 -4.7276E+01  2.5147E+03

           1    3.80012E+00     2.2484E-01 -4.5301E-03 -8.0496E-01  8.3578E-01
ac ID =   33377                 1.4655E-01  8.0579E+00 -4.7297E-01  8.0731E+00
                               -3.7909E-01  1.1167E+01 -4.7299E+01  2.5147E+03

           1    3.90011E+00     2.6630E-01  5.1283E-03 -9.0837E-01  9.4661E-01
ac ID =   33377                -4.5901E-01  8.7505E+00 -7.4611E-01  8.7943E+00
                               -3.7941E-01  1.1226E+01 -4.7321E+01  2.5147E+03

           1    4.00010E+00     2.6469E-01  1.1236E-02 -8.9556E-01  9.3393E-01
ac ID =   33377                -2.1484E-01  8.6559E+00 -3.6523E-01  8.6663E+00
                               -3.7981E-01  1.1290E+01 -4.7345E+01  2.5147E+03

           1    4.10009E+00     2.5979E-01  4.4464E-04 -9.2438E-01  9.6019E-01
ac ID =   33377                -1.4673E-01  8.7947E+00  1.9234E-01  8.7981E+00
                               -3.8015E-01  1.1357E+01 -4.7369E+01  2.5147E+03

           1    4.20008E+00     2.5136E-01  7.6855E-04 -1.0504E+00  1.0800E+00
ac ID =   33377                -2.5157E-01  9.0374E+00  3.1515E-01  9.0464E+00
                               -3.8047E-01  1.1429E+01 -4.7393E+01  2.5147E+03

           1    4.30007E+00     3.0497E-01  1.3353E-02 -1.2059E+00  1.2439E+00
ac ID =   33377                -9.6581E-01  1.0152E+01 -1.7783E-01  1.0200E+01
                               -3.8084E-01  1.1505E+01 -4.7417E+01  2.5147E+03

           1    4.40006E+00     3.0683E-01  8.5023E-03 -1.1965E+00  1.2352E+00
ac ID =   33377                -2.3441E-01  1.0874E+01 -5.1024E-01  1.0888E+01
                               -3.8124E-01  1.1585E+01 -4.7442E+01  2.5147E+03

           1    4.50005E+00     3.0824E-01 -1.2558E-02 -1.1798E+00  1.2195E+00
ac ID =   33377                 7.8816E-02  1.0758E+01 -3.6002E-01  1.0764E+01
                               -3.8154E-01  1.1670E+01 -4.7467E+01  2.5147E+03

           1    4.60004E+00     3.2145E-01  2.9581E-03 -1.3177E+00  1.3564E+00
ac ID =   33377                -1.7827E-01  1.1674E+01  4.1502E-03  1.1675E+01
                               -3.8193E-01  1.1758E+01 -4.7491E+01  2.5147E+03

           1    4.70003E+00     3.3396E-01  3.4281E-03 -1.4562E+00  1.4940E+00
ac ID =   33377                -1.2179E-01  1.1987E+01  2.9324E-01  1.1991E+01
                               -3.8230E-01  1.1851E+01 -4.7516E+01  2.5147E+03

           1    4.80002E+00     2.6694E-01 -1.1461E-02 -1.4440E+00  1.4685E+00
ac ID =   33377                 1.1172E-01  1.1559E+01  1.7869E-01  1.1561E+01
                               -3.8259E-01  1.1948E+01 -4.7540E+01  2.5147E+03

           1    4.90001E+00     3.2788E-01 -9.1220E-03 -1.4699E+00  1.5061E+00
ac ID =   33377                 1.4117E-01  1.2760E+01 -6.0801E-02  1.2761E+01
                               -3.8287E-01  1.2048E+01 -4.7564E+01  2.5147E+03

           1    5.00000E+00     3.6710E-01  7.1233E-03 -1.5723E+00  1.6146E+00
ac ID =   33377                -5.7861E-01  1.3977E+01 -1.0722E-01  1.3989E+01
                               -3.8324E-01  1.2151E+01 -4.7587E+01  2.5147E+03

           1    5.10049E+00     3.4373E-01  6.4178E-03 -1.7146E+00  1.7487E+00
ac ID =   33377                -2.4232E-01  1.3782E+01  1.8848E-01  1.3785E+01
                               -3.8358E-01  1.2259E+01 -4.7610E+01  2.5147E+03

           1    5.20048E+00     3.2065E-01  2.0461E-03 -1.7504E+00  1.7796E+00
ac ID =   33377                -7.4743E-01  1.4698E+01  6.0127E-01  1.4730E+01
                               -3.8384E-01  1.2369E+01 -4.7632E+01  2.5147E+03

           1    5.30047E+00     3.9538E-01 -7.1882E-04 -1.7777E+00  1.8211E+00
ac ID =   33377                 2.4403E-01  1.5445E+01  3.4542E-01  1.5451E+01
                               -3.8422E-01  1.2483E+01 -4.7653E+01  2.5147E+03

           1    5.40046E+00     3.8852E-01  5.4283E-04 -1.8935E+00  1.9330E+00
ac ID =   33377                -5.4479E-01  1.6563E+01  1.5012E-01  1.6572E+01
                               -3.8456E-01  1.2600E+01 -4.7673E+01  2.5147E+03

           1    5.50045E+00     3.6670E-01  1.7092E-03 -2.0451E+00  2.0777E+00
ac ID =   33377                -4.8240E-02  1.6752E+01 -2.5667E-01  1.6754E+01
                               -3.8497E-01  1.2721E+01 -4.7692E+01  2.5147E+03

           1    5.60044E+00     4.0681E-01 -1.2407E-02 -2.1867E+00  2.2242E+00
ac ID =   33377                -5.4663E-03  1.8349E+01 -1.5716E-01  1.8349E+01
                               -3.8535E-01  1.2844E+01 -4.7710E+01  2.5147E+03

           1    5.70043E+00     4.2935E-01  4.7637E-05 -2.2434E+00  2.2841E+00
ac ID =   33377                -3.5797E-02  1.9267E+01  2.2463E-01  1.9269E+01
                               -3.8575E-01  1.2971E+01 -4.7727E+01  2.5147E+03

           1    5.80042E+00     4.1308E-01  9.1887E-03 -2.2564E+00  2.2939E+00
ac ID =   33377                -3.3172E-01  1.9536E+01  2.5797E-01  1.9541E+01
                               -3.8616E-01  1.3101E+01 -4.7742E+01  2.5147E+03

           1    5.90041E+00     4.2114E-01 -1.0791E-02 -2.3952E+00  2.4320E+00
ac ID =   33377                -1.8574E-02  2.0690E+01  1.8439E-02  2.0690E+01
                               -3.8656E-01  1.3234E+01 -4.7755E+01  2.5147E+03

           1    6.00040E+00     4.7458E-01  3.8320E-03 -2.5065E+00  2.5510E+00
ac ID =   33377                -3.4188E-01  2.1955E+01 -1.6105E-01  2.1959E+01
                               -3.8696E-01  1.3369E+01 -4.7766E+01  2.5147E+03

           1    6.10039E+00     4.7487E-01  1.5248E-02 -2.5251E+00  2.5694E+00
ac ID =   33377                -8.0163E-01  2.2574E+01 -3.4470E-01  2.2591E+01
                               -3.8739E-01  1.3508E+01 -4.7776E+01  2.5147E+03

           1    6.20038E+00     4.5136E-01  1.4177E-03 -2.5663E+00  2.6057E+00
ac ID =   33377                -4.1421E-01  2.2987E+01 -6.3884E-02  2.2991E+01
                               -3.8779E-01  1.3649E+01 -4.7784E+01  2.5147E+03

           1    6.30037E+00     4.8855E-01 -8.1138E-03 -2.6821E+00  2.7263E+00
ac ID =   33377                -2.5688E-01  2.4492E+01 -5.7642E-02  2.4493E+01
                               -3.8815E-01  1.3793E+01 -4.7790E+01  2.5147E+03

           1    6.40036E+00     4.8990E-01  1.0754E-02 -2.8236E+00  2.8658E+00
ac ID =   33377                -5.7522E-01  2.5528E+01  1.5719E-01  2.5535E+01
                               -3.8855E-01  1.3939E+01 -4.7793E+01  2.5147E+03

           1    6.50035E+00     4.6398E-01  3.1584E-02 -2.8376E+00  2.8755E+00
ac ID =   33377                -8.7995E-01  2.5967E+01 -1.6880E-02  2.5982E+01
                               -3.8894E-01  1.4087E+01 -4.7794E+01  2.5147E+03

           1    6.60034E+00     5.0387E-01 -1.0338E-02 -2.8613E+00  2.9053E+00
ac ID =   33377                -2.5432E-01  2.7244E+01  2.6940E-02  2.7245E+01
                               -3.8906E-01  1.4237E+01 -4.7793E+01  2.5147E+03

           1    6.70033E+00     5.2659E-01  1.0888E-03 -2.9446E+00  2.9913E+00
ac ID =   33377                -8.4157E-01  2.9263E+01 -5.2648E-02  2.9275E+01
                               -3.8919E-01  1.4389E+01 -4.7788E+01  2.5147E+03

           1    6.80032E+00     5.0909E-01  3.7346E-02 -3.0419E+00  3.0844E+00
ac ID =   33377                -1.4417E+00  2.9647E+01  2.8409E-01  2.9683E+01
                               -3.8932E-01  1.4543E+01 -4.7781E+01  2.5147E+03

           1    6.90031E+00     5.1913E-01  6.7863E-03 -3.1319E+00  3.1746E+00
ac ID =   33377                -1.0174E+00  3.1178E+01  9.4514E-02  3.1194E+01
                               -3.8930E-01  1.4699E+01 -4.7771E+01  2.5147E+03

           1    7.00030E+00     5.5928E-01  1.1187E-02 -3.1013E+00  3.1514E+00
ac ID =   33377                -1.1079E+00  3.2177E+01  7.8436E-02  3.2197E+01
                               -3.8927E-01  1.4855E+01 -4.7758E+01  2.5147E+03

           1    7.10029E+00     5.4644E-01  2.8305E-02 -3.2065E+00  3.2529E+00
ac ID =   33377                -1.4776E+00  3.2898E+01 -1.8002E-01  3.2932E+01
                               -3.8920E-01  1.5014E+01 -4.7741E+01  2.5147E+03

           1    7.20028E+00     5.5249E-01  4.4896E-03 -3.3620E+00  3.4071E+00
ac ID =   33377                -9.8693E-01  3.4405E+01 -1.5091E-01  3.4420E+01
                               -3.8910E-01  1.5173E+01 -4.7721E+01  2.5147E+03

           1    7.30027E+00     5.8354E-01  1.3633E-02 -3.4278E+00  3.4772E+00
ac ID =   33377                -7.5415E-01  3.5886E+01  2.3855E-01  3.5895E+01
                               -3.8895E-01  1.5334E+01 -4.7698E+01  2.5147E+03

           1    7.40026E+00     5.9828E-01  7.2949E-03 -3.4838E+00  3.5348E+00
ac ID =   33377                -1.2012E+00  3.7042E+01 -2.3832E-01  3.7062E+01
                               -3.8871E-01  1.5496E+01 -4.7671E+01  2.5147E+03

           1    7.50025E+00     5.9767E-01  1.8563E-02 -3.4739E+00  3.5250E+00
ac ID =   33377                -1.0571E+00  3.7890E+01 -6.4912E-01  3.7910E+01
                               -3.8846E-01  1.5659E+01 -4.7641E+01  2.5147E+03

           1    7.60024E+00     5.7935E-01  9.4313E-03 -3.5190E+00  3.5664E+00
ac ID =   33377                -1.0110E+00  3.8606E+01 -7.1127E-01  3.8626E+01
                               -3.8819E-01  1.5823E+01 -4.7607E+01  2.5147E+03

           1    7.70023E+00     6.1580E-01  9.5208E-03 -3.6114E+00  3.6635E+00
ac ID =   33377                -1.2617E+00  3.9559E+01 -5.1595E-02  3.9579E+01
                               -3.8783E-01  1.5987E+01 -4.7569E+01  2.5147E+03

           1    7.80022E+00     6.0926E-01  1.3076E-02 -3.6036E+00  3.6548E+00
ac ID =   33377                -1.7112E+00  4.0075E+01 -5.2930E-03  4.0111E+01
                               -3.8748E-01  1.6153E+01 -4.7527E+01  2.5147E+03

           1    7.90021E+00     6.2219E-01  1.1658E-02 -3.5969E+00  3.6503E+00
ac ID =   33377                -1.3300E+00  4.1111E+01 -3.2600E-01  4.1134E+01
                               -3.8717E-01  1.6319E+01 -4.7481E+01  2.5147E+03

           1    8.00020E+00     6.0772E-01  1.2090E-02 -3.6622E+00  3.7123E+00
ac ID =   33377                -1.5255E+00  4.2344E+01 -2.2772E-01  4.2372E+01
                               -3.8678E-01  1.6486E+01 -4.7432E+01  2.5147E+03

           1    8.10019E+00     6.4021E-01  8.6448E-03 -3.7449E+00  3.7993E+00
ac ID =   33377                -9.6998E-01  4.3660E+01 -4.9210E-01  4.3674E+01
                               -3.8642E-01  1.6653E+01 -4.7378E+01  2.5147E+03

           1    8.20018E+00     6.3965E-01  8.9113E-03 -3.7464E+00  3.8006E+00
ac ID =   33377                -1.5092E+00  4.4368E+01 -3.2247E-01  4.4395E+01
                               -3.8600E-01  1.6821E+01 -4.7320E+01  2.5147E+03

           1    8.30017E+00     6.2827E-01 -3.2939E-03 -3.7200E+00  3.7727E+00
ac ID =   33377                -5.7939E-01  4.5007E+01 -5.0656E-01  4.5014E+01
                               -3.8559E-01  1.6989E+01 -4.7258E+01  2.5147E+03

           1    8.40016E+00     6.5781E-01  1.4011E-02 -3.7255E+00  3.7831E+00
ac ID =   33377                -1.3858E+00  4.6218E+01 -6.7694E-02  4.6239E+01
                               -3.8514E-01  1.7157E+01 -4.7193E+01  2.5147E+03

           1    8.50015E+00     6.6088E-01  1.0756E-02 -3.7759E+00  3.8333E+00
ac ID =   33377                -1.0960E+00  4.6776E+01 -1.7278E-01  4.6789E+01
                               -3.8468E-01  1.7326E+01 -4.7123E+01  2.5147E+03

           1    8.60014E+00     6.5931E-01 -5.6494E-03 -3.8034E+00  3.8601E+00
ac ID =   33377                -1.5278E+00  4.7872E+01 -3.9302E-01  4.7898E+01
                               -3.8417E-01  1.7496E+01 -4.7049E+01  2.5147E+03

           1    8.70013E+00     6.6436E-01  1.5296E-02 -3.7919E+00  3.8497E+00
ac ID =   33377                -1.4764E+00  4.8361E+01 -8.1843E-01  4.8391E+01
                               -3.8374E-01  1.7666E+01 -4.6971E+01  2.5147E+03

           1    8.80012E+00     7.0663E-01  1.7537E-02 -3.8057E+00  3.8708E+00
ac ID =   33377                -1.8885E+00  4.9547E+01 -3.2114E-01  4.9584E+01
                               -3.8324E-01  1.7837E+01 -4.6889E+01  2.5147E+03

           1    8.90011E+00     6.6405E-01  4.0385E-03 -3.8145E+00  3.8718E+00
ac ID =   33377                -1.5693E+00  4.9996E+01  4.0165E-01  5.0023E+01
                               -3.8282E-01  1.8008E+01 -4.6804E+01  2.5147E+03

           1    9.00010E+00     6.6738E-01  5.0457E-03 -3.8292E+00  3.8870E+00
ac ID =   33377                -8.4152E-01  5.0818E+01  3.6571E-01  5.0826E+01
                               -3.8246E-01  1.8180E+01 -4.6714E+01  2.5147E+03

           1    9.10009E+00     6.9455E-01  1.0725E-02 -3.7933E+00  3.8564E+00
ac ID =   33377                -1.3591E+00  5.1558E+01 -3.8298E-01  5.1577E+01
                               -3.8197E-01  1.8353E+01 -4.6620E+01  2.5147E+03

           1    9.20008E+00     6.9175E-01  1.4939E-02 -3.7240E+00  3.7877E+00
ac ID =   33377                -1.1372E+00  5.1500E+01 -1.1948E+00  5.1526E+01
                               -3.8156E-01  1.8525E+01 -4.6523E+01  2.5147E+03

           1    9.30007E+00     6.8165E-01 -5.9417E-03 -3.7292E+00  3.7909E+00
ac ID =   33377                -8.2391E-01  5.1869E+01 -1.0140E+00  5.1886E+01
                               -3.8111E-01  1.8699E+01 -4.6421E+01  2.5147E+03

           1    9.40006E+00     6.6076E-01  1.3796E-02 -3.7258E+00  3.7839E+00
ac ID =   33377                -1.2963E+00  5.2541E+01 -4.2574E-01  5.2559E+01
                               -3.8058E-01  1.8872E+01 -4.6315E+01  2.5147E+03

           1    9.50005E+00     6.9129E-01  1.1567E-02 -3.6644E+00  3.7290E+00
ac ID =   33377                -1.4368E+00  5.3168E+01 -2.6885E-02  5.3187E+01
                               -3.8005E-01  1.9046E+01 -4.6205E+01  2.5147E+03

           1    9.60004E+00     6.8103E-01  1.6847E-02 -3.5848E+00  3.6490E+00
ac ID =   33377                -1.0795E+00  5.3437E+01 -2.8241E-01  5.3449E+01
                               -3.7955E-01  1.9221E+01 -4.6092E+01  2.5147E+03

           1    9.70003E+00     6.6339E-01 -1.9681E-03 -3.5085E+00  3.5707E+00
ac ID =   33377                -1.6366E+00  5.4041E+01 -6.8890E-01  5.4070E+01
                               -3.7888E-01  1.9396E+01 -4.5975E+01  2.5147E+03

           1    9.80002E+00     6.9701E-01  1.4680E-02 -3.5038E+00  3.5725E+00
ac ID =   33377                -1.2389E+00  5.4616E+01 -6.6548E-01  5.4635E+01
                               -3.7831E-01  1.9571E+01 -4.5854E+01  2.5147E+03

           1    9.90001E+00     6.5395E-01 -5.2739E-03 -3.4605E+00  3.5218E+00
ac ID =   33377                -1.0230E+00  5.4338E+01 -1.9319E-01  5.4348E+01
                               -3.7765E-01  1.9746E+01 -4.5730E+01  2.5147E+03

           1    1.00005E+01     6.8360E-01  4.1615E-03 -3.4128E+00  3.4806E+00
ac ID =   33377                -1.1130E+00  5.5241E+01  1.3929E-01  5.5252E+01
                               -3.7691E-01  1.9923E+01 -4.5602E+01  2.5147E+03

           1    1.01005E+01     6.7257E-01  1.1358E-03 -3.3249E+00  3.3922E+00
ac ID =   33377                -1.1279E+00  5.5076E+01  1.0099E-01  5.5088E+01
                               -3.7625E-01  2.0099E+01 -4.5471E+01  2.5147E+03

           1    1.02005E+01     6.9656E-01  2.5982E-03 -3.3077E+00  3.3803E+00
ac ID =   33377                -6.9809E-01  5.5859E+01 -4.2583E-01  5.5865E+01
                               -3.7555E-01  2.0275E+01 -4.5336E+01  2.5147E+03

           1    1.03005E+01     6.6631E-01 -3.9171E-03 -3.2810E+00  3.3480E+00
ac ID =   33377                -1.3642E+00  5.6367E+01 -3.5784E-01  5.6384E+01
                               -3.7477E-01  2.0452E+01 -4.5199E+01  2.5147E+03

           1    1.04005E+01     6.6272E-01  6.5799E-03 -3.1825E+00  3.2508E+00
ac ID =   33377                -1.2433E+00  5.6393E+01 -4.1448E-01  5.6408E+01
                               -3.7412E-01  2.0628E+01 -4.5058E+01  2.5147E+03

           1    1.05004E+01     6.8339E-01  9.4329E-04 -3.0781E+00  3.1531E+00
ac ID =   33377                -1.3369E+00  5.6960E+01 -2.8680E-01  5.6976E+01
                               -3.7339E-01  2.0805E+01 -4.4915E+01  2.5147E+03

           1    1.06004E+01     6.5420E-01  2.8447E-03 -3.0302E+00  3.1000E+00
ac ID =   33377                -1.0962E+00  5.6660E+01  2.2227E-01  5.6671E+01
                               -3.7264E-01  2.0982E+01 -4.4768E+01  2.5147E+03

           1    1.07004E+01     6.7709E-01  9.9672E-03 -2.9984E+00  3.0739E+00
ac ID =   33377                -1.5310E+00  5.7518E+01  6.7904E-01  5.7542E+01
                               -3.7197E-01  2.1159E+01 -4.4619E+01  2.5147E+03

           1    1.08004E+01     6.5497E-01 -7.6290E-03 -2.9234E+00  2.9958E+00
ac ID =   33377                -6.3991E-01  5.7035E+01 -6.2560E-01  5.7042E+01
                               -3.7120E-01  2.1336E+01 -4.4468E+01  2.5147E+03

           1    1.09004E+01     6.6020E-01  1.6277E-03 -2.8463E+00  2.9219E+00
ac ID =   33377                -1.5426E+00  5.7474E+01 -1.0204E+00  5.7504E+01
                               -3.7042E-01  2.1514E+01 -4.4314E+01  2.5147E+03

           1    1.10004E+01     6.5810E-01  1.1785E-02 -2.7579E+00  2.8354E+00
ac ID =   33377                -1.4644E+00  5.7667E+01 -5.7998E-01  5.7688E+01
                               -3.6972E-01  2.1692E+01 -4.4158E+01  2.5147E+03

           1    1.11004E+01     6.4191E-01 -1.5006E-03 -2.6757E+00  2.7516E+00
ac ID =   33377                -1.4730E+00  5.8109E+01  2.0516E-01  5.8128E+01
                               -3.6894E-01  2.1870E+01 -4.3999E+01  2.5147E+03

           1    1.12004E+01     6.5952E-01  5.1172E-03 -2.5809E+00  2.6638E+00
ac ID =   33377                -1.1031E+00  5.7970E+01  2.2758E-01  5.7981E+01
                               -3.6819E-01  2.2048E+01 -4.3839E+01  2.5147E+03

           1    1.13004E+01     6.3754E-01  2.9578E-02 -2.4625E+00  2.5439E+00
ac ID =   33377                -2.3767E+00  5.7629E+01 -4.6648E-01  5.7680E+01
                               -3.6744E-01  2.2227E+01 -4.3677E+01  2.5147E+03

           1    1.14004E+01     6.1194E-01 -1.8381E-02 -2.3352E+00  2.4141E+00
ac ID =   33377                -1.1887E+00  5.6905E+01 -8.4380E-01  5.6923E+01
                               -3.6672E-01  2.2406E+01 -4.3513E+01  2.5147E+03

           1    1.15003E+01     6.1098E-01  4.6745E-03 -2.2720E+00  2.3527E+00
ac ID =   33377                -1.6761E+00  5.6687E+01 -1.1826E-01  5.6712E+01
                               -3.6608E-01  2.2585E+01 -4.3347E+01  2.5147E+03

           1    1.16003E+01     5.8158E-01  1.8558E-02 -2.1841E+00  2.2602E+00
ac ID =   33377                -1.8423E+00  5.6056E+01  4.5295E-01  5.6088E+01
                               -3.6550E-01  2.2765E+01 -4.3180E+01  2.5147E+03

           1    1.17003E+01     6.0442E-01  1.2694E-02 -2.1102E+00  2.1951E+00
ac ID =   33377                -1.4290E+00  5.6166E+01  1.6058E-01  5.6185E+01
                               -3.6496E-01  2.2944E+01 -4.3012E+01  2.5147E+03

           1    1.18003E+01     6.1847E-01 -1.5570E-02 -2.0303E+00  2.1225E+00
ac ID =   33377                -1.3853E+00  5.6905E+01 -9.3237E-01  5.6930E+01
                               -3.6447E-01  2.3123E+01 -4.2842E+01  2.5147E+03

           1    1.19003E+01     5.6646E-01  8.1540E-03 -1.9194E+00  2.0012E+00
ac ID =   33377                -2.0223E+00  5.5425E+01 -9.6918E-01  5.5470E+01
                               -3.6402E-01  2.3303E+01 -4.2671E+01  2.5147E+03

           1    1.20003E+01     5.9480E-01  2.0805E-02 -1.8438E+00  1.9375E+00
ac ID =   33377                -1.8128E+00  5.6119E+01 -3.0597E-01  5.6149E+01
                               -3.6374E-01  2.3482E+01 -4.2499E+01  2.5147E+03

           1    1.21003E+01     5.7928E-01  4.7002E-03 -1.7300E+00  1.8244E+00
ac ID =   33377                -1.6692E+00  5.4692E+01  3.4869E-01  5.4719E+01
                               -3.6342E-01  2.3661E+01 -4.2327E+01  2.5147E+03

           1    1.22003E+01     5.7969E-01  8.3038E-03 -1.6205E+00  1.7210E+00
ac ID =   33377                -2.1175E+00  5.4043E+01 -5.0610E-02  5.4084E+01
                               -3.6321E-01  2.3841E+01 -4.2154E+01  2.5147E+03

           1    1.23003E+01     5.2630E-01  2.0061E-03 -1.5435E+00  1.6308E+00
ac ID =   33377                -2.0507E+00  5.2524E+01 -6.7749E-01  5.2568E+01
                               -3.6310E-01  2.4020E+01 -4.1980E+01  2.5147E+03

           1    1.24003E+01     5.4716E-01  5.6725E-03 -1.4816E+00  1.5794E+00
ac ID =   33377                -1.8485E+00  5.2203E+01 -1.1839E+00  5.2249E+01
                               -3.6303E-01  2.4200E+01 -4.1805E+01  2.5147E+03

           1    1.25002E+01     5.1761E-01  2.1499E-02 -1.3857E+00  1.4794E+00
ac ID =   33377                -1.8793E+00  5.1913E+01 -4.7654E-01  5.1949E+01
                               -3.6309E-01  2.4380E+01 -4.1631E+01  2.5147E+03

           1    1.26002E+01     5.1315E-01 -5.6020E-04 -1.3084E+00  1.4055E+00
ac ID =   33377                -1.6918E+00  5.1888E+01 -2.0979E-01  5.1916E+01
                               -3.6313E-01  2.4559E+01 -4.1456E+01  2.5147E+03

           1    1.27002E+01     5.0911E-01  1.4687E-02 -1.2031E+00  1.3065E+00
ac ID =   33377                -2.0897E+00  5.2483E+01 -5.1273E-01  5.2527E+01
                               -3.6326E-01  2.4740E+01 -4.1282E+01  2.5147E+03

           1    1.28002E+01     5.3767E-01 -1.8500E-03 -1.0937E+00  1.2187E+00
ac ID =   33377                -1.4346E+00  5.2815E+01 -5.8246E-01  5.2838E+01
                               -3.6343E-01  2.4920E+01 -4.1107E+01  2.5147E+03

           1    1.29002E+01     5.0267E-01  1.4764E-02 -1.0096E+00  1.1279E+00
ac ID =   33377                -1.7095E+00  5.2020E+01 -2.9551E-01  5.2049E+01
                               -3.6371E-01  2.5100E+01 -4.0933E+01  2.5147E+03

           1    1.30002E+01     4.9425E-01  3.8173E-03 -8.9431E-01  1.0218E+00
ac ID =   33377                -1.9451E+00  5.0912E+01 -3.3718E-01  5.0950E+01
                               -3.6396E-01  2.5280E+01 -4.0760E+01  2.5147E+03

           1    1.31002E+01     4.8372E-01  1.7704E-03 -7.9832E-01  9.3343E-01
ac ID =   33377                -1.7533E+00  4.9889E+01 -4.0986E-01  4.9921E+01
                               -3.6432E-01  2.5461E+01 -4.0587E+01  2.5147E+03

           1    1.32002E+01     4.7398E-01  3.5152E-03 -7.3289E-01  8.7281E-01
ac ID =   33377                -1.7205E+00  4.9216E+01 -3.7468E-01  4.9247E+01
                               -3.6476E-01  2.5641E+01 -4.0415E+01  2.5147E+03

           1    1.33002E+01     4.3847E-01  1.2365E-02 -6.4013E-01  7.7600E-01
ac ID =   33377                -1.7507E+00  4.8505E+01 -4.6111E-01  4.8539E+01
                               -3.6528E-01  2.5822E+01 -4.0243E+01  2.5147E+03

           1    1.34002E+01     4.6476E-01  1.0566E-02 -5.8139E-01  7.4440E-01
ac ID =   33377                -1.8853E+00  4.8903E+01 -4.9768E-01  4.8941E+01
                               -3.6584E-01  2.6002E+01 -4.0073E+01  2.5147E+03

           1    1.35001E+01     4.7138E-01  1.3580E-02 -5.0436E-01  6.9049E-01
ac ID =   33377                -1.5951E+00  4.8607E+01 -6.9719E-01  4.8638E+01
                               -3.6656E-01  2.6183E+01 -3.9904E+01  2.5147E+03

           1    1.36001E+01     4.5707E-01 -4.7701E-03 -4.1575E-01  6.1789E-01
ac ID =   33377                -1.1991E+00  4.7843E+01 -2.3789E-01  4.7859E+01
                               -3.6726E-01  2.6363E+01 -3.9736E+01  2.5147E+03

           1    1.37001E+01     4.4072E-01  1.2964E-02 -3.4563E-01  5.6023E-01
ac ID =   33377                -1.7645E+00  4.6988E+01  2.9236E-02  4.7021E+01
                               -3.6803E-01  2.6544E+01 -3.9570E+01  2.5147E+03

           1    1.38001E+01     4.4058E-01  1.2510E-02 -2.3403E-01  4.9903E-01
ac ID =   33377                -1.3406E+00  4.5686E+01 -5.1027E-01  4.5708E+01
                               -3.6898E-01  2.6724E+01 -3.9405E+01  2.5147E+03

           1    1.39001E+01     4.4458E-01 -9.8970E-03 -1.7543E-01  4.7805E-01
ac ID =   33377                -1.2437E+00  4.5037E+01 -3.6706E-01  4.5056E+01
                               -3.6985E-01  2.6904E+01 -3.9241E+01  2.5147E+03

           1    1.40001E+01     4.1087E-01  5.1378E-03 -1.0559E-01  4.2425E-01
ac ID =   33377                -1.8436E+00  4.3913E+01 -4.6778E-01  4.3954E+01
                               -3.7087E-01  2.7084E+01 -3.9079E+01  2.5147E+03

           1    1.41001E+01     4.2459E-01  2.0112E-02 -1.9394E-02  4.2550E-01
ac ID =   33377                -1.8443E+00  4.3698E+01 -1.9678E-01  4.3738E+01
                               -3.7199E-01  2.7263E+01 -3.8919E+01  2.5147E+03

           1    1.42001E+01     4.1094E-01 -1.3109E-02  5.0818E-02  4.1428E-01
ac ID =   33377                -1.0229E+00  4.3412E+01 -1.6901E-01  4.3424E+01
                               -3.7312E-01  2.7443E+01 -3.8762E+01  2.5147E+03

           1    1.43001E+01     3.9962E-01  1.0742E-02  1.2670E-01  4.1936E-01
ac ID =   33377                -1.5065E+00  4.3115E+01 -2.7212E-01  4.3142E+01
                               -3.7435E-01  2.7622E+01 -3.8606E+01  2.5147E+03

           1    1.44001E+01     4.0680E-01  1.0258E-02  1.6350E-01  4.3855E-01
ac ID =   33377                -1.3392E+00  4.3109E+01 -4.7133E-01  4.3132E+01
                               -3.7561E-01  2.7802E+01 -3.8452E+01  2.5147E+03

           1    1.45000E+01     3.9130E-01 -3.5217E-03  2.3149E-01  4.5466E-01
ac ID =   33377                -1.1586E+00  4.2352E+01 -2.4612E-01  4.2368E+01
                               -3.7694E-01  2.7981E+01 -3.8301E+01  2.5147E+03

           1    1.46000E+01     3.8652E-01  3.8930E-03  2.8044E-01  4.7755E-01
ac ID =   33377                -1.0959E+00  4.1257E+01 -1.6952E-01  4.1272E+01
                               -3.7830E-01  2.8160E+01 -3.8152E+01  2.5147E+03

           1    1.47000E+01     3.5556E-01  1.6138E-02  3.3254E-01  4.8710E-01
ac ID =   33377                -1.6414E+00  4.0506E+01 -3.6684E-01  4.0541E+01
                               -3.7974E-01  2.8339E+01 -3.8006E+01  2.5147E+03

           1    1.48005E+01     3.7783E-01  5.8684E-03  3.9035E-01  5.4329E-01
ac ID =   33377                -1.3845E+00  4.0426E+01 -4.6892E-01  4.0453E+01
                               -3.8123E-01  2.8519E+01 -3.7861E+01  2.5147E+03

           1    1.49005E+01     3.7095E-01 -7.3936E-03  4.4119E-01  5.7646E-01
ac ID =   33377                -9.4130E-01  4.0326E+01 -6.2934E-01  4.0342E+01
                               -3.8278E-01  2.8697E+01 -3.7721E+01  2.5147E+03

           1    1.50005E+01     3.5793E-01  2.0478E-02  4.8006E-01  5.9915E-01
ac ID =   33377                -1.4417E+00  3.9906E+01 -3.6172E-01  3.9934E+01
                               -3.8441E-01  2.8876E+01 -3.7583E+01  2.5147E+03

           1    1.51005E+01     3.5573E-01 -2.4955E-03  5.1489E-01  6.2582E-01
ac ID =   33377                -1.0887E+00  3.9207E+01 -3.1027E-01  3.9223E+01
                               -3.8606E-01  2.9055E+01 -3.7447E+01  2.5147E+03

           1    1.52005E+01     3.8231E-01 -2.9928E-03  5.5543E-01  6.7430E-01
ac ID =   33377                -6.9658E-01  3.9169E+01 -2.5489E-01  3.9176E+01
                               -3.8780E-01  2.9233E+01 -3.7315E+01  2.5147E+03

           1    1.53005E+01     3.6690E-01  6.5155E-03  6.1720E-01  7.1805E-01
ac ID =   33377                -9.3306E-01  3.8213E+01 -2.0094E-01  3.8225E+01
                               -3.8957E-01  2.9412E+01 -3.7185E+01  2.5147E+03

           1    1.54005E+01     3.2134E-01  2.6201E-03  6.6924E-01  7.4240E-01
ac ID =   33377                -1.1847E+00  3.6313E+01 -1.5644E-01  3.6332E+01
                               -3.9139E-01  2.9590E+01 -3.7059E+01  2.5147E+03

           1    1.55004E+01     3.5466E-01 -7.8036E-03  6.6852E-01  7.5681E-01
ac ID =   33377                -8.7158E-01  3.5763E+01 -4.2935E-01  3.5777E+01
                               -3.9325E-01  2.9768E+01 -3.6936E+01  2.5147E+03

           1    1.56004E+01     3.2861E-01  1.3247E-02  6.9625E-01  7.7002E-01
ac ID =   33377                -1.1543E+00  3.4783E+01 -5.9684E-01  3.4807E+01
                               -3.9521E-01  2.9946E+01 -3.6816E+01  2.5147E+03

           1    1.57004E+01     3.0767E-01 -5.2482E-03  7.3592E-01  7.9766E-01
ac ID =   33377                -9.3786E-01  3.3663E+01 -3.0948E-02  3.3677E+01
                               -3.9715E-01  3.0125E+01 -3.6699E+01  2.5147E+03

           1    1.58004E+01     3.2540E-01  9.9034E-03  7.9557E-01  8.5960E-01
ac ID =   33377                -9.2208E-01  3.3397E+01 -1.3401E-01  3.3410E+01
                               -3.9921E-01  3.0303E+01 -3.6585E+01  2.5147E+03

           1    1.59004E+01     3.4282E-01 -6.3648E-03  7.9931E-01  8.6975E-01
ac ID =   33377                -8.2104E-01  3.3848E+01 -3.4559E-01  3.3860E+01
                               -4.0131E-01  3.0481E+01 -3.6475E+01  2.5147E+03

           1    1.60004E+01     3.2910E-01  6.6228E-03  7.7926E-01  8.4592E-01
ac ID =   33377                -1.1038E+00  3.3739E+01 -3.4450E-01  3.3759E+01
                               -4.0345E-01  3.0659E+01 -3.6368E+01  2.5147E+03

           1    1.61004E+01     3.1016E-01  3.6339E-04  8.4490E-01  9.0003E-01
ac ID =   33377                -1.0172E+00  3.3207E+01 -9.7207E-02  3.3223E+01
                               -4.0566E-01  3.0837E+01 -3.6265E+01  2.5147E+03

           1    1.62004E+01     3.5103E-01  1.1727E-02  8.6504E-01  9.3362E-01
ac ID =   33377                -8.1315E-01  3.3618E+01 -3.3741E-01  3.3630E+01
                               -4.0794E-01  3.1015E+01 -3.6165E+01  2.5147E+03

           1    1.63004E+01     3.1037E-01 -7.1449E-03  8.4388E-01  8.9917E-01
ac ID =   33377                -8.9413E-01  3.1889E+01 -3.8380E-01  3.1904E+01
                               -4.1021E-01  3.1193E+01 -3.6068E+01  2.5147E+03

           1    1.64004E+01     3.0575E-01  2.1919E-02  8.3114E-01  8.8587E-01
ac ID =   33377                -1.4294E+00  3.0954E+01 -4.0628E-01  3.0990E+01
                               -4.1263E-01  3.1371E+01 -3.5975E+01  2.5147E+03

           1    1.65003E+01     2.9528E-01  6.6370E-03  8.5364E-01  9.0329E-01
ac ID =   33377                -1.0635E+00  3.0420E+01 -6.7330E-01  3.0446E+01
                               -4.1509E-01  3.1550E+01 -3.5886E+01  2.5147E+03

           1    1.66003E+01     3.0816E-01  1.0541E-02  8.9184E-01  9.4364E-01
ac ID =   33377                -1.1334E+00  3.0381E+01 -3.1261E-01  3.0404E+01
                               -4.1757E-01  3.1728E+01 -3.5800E+01  2.5147E+03

           1    1.67003E+01     2.9227E-01  2.2032E-03  8.8876E-01  9.3558E-01
ac ID =   33377                -9.0926E-01  2.9157E+01 -1.4596E-01  2.9172E+01
                               -4.2017E-01  3.1905E+01 -3.5717E+01  2.5147E+03

           1    1.68003E+01     2.8916E-01  1.6200E-02  8.7997E-01  9.2640E-01
ac ID =   33377                -1.2169E+00  2.8060E+01 -4.7331E-01  2.8090E+01
                               -4.2286E-01  3.2083E+01 -3.5637E+01  2.5147E+03

           1    1.69003E+01     2.9389E-01 -1.2823E-02  8.7983E-01  9.2770E-01
ac ID =   33377                -4.9872E-01  2.6763E+01 -5.5027E-01  2.6773E+01
                               -4.2553E-01  3.2260E+01 -3.5560E+01  2.5147E+03

           1    1.70003E+01     2.5392E-01  9.3663E-03  9.1060E-01  9.4539E-01
ac ID =   33377                -8.9250E-01  2.4982E+01 -1.6292E-01  2.4998E+01
                               -4.2834E-01  3.2437E+01 -3.5487E+01  2.5147E+03

           1    1.71003E+01     2.8017E-01  7.6074E-03  9.4840E-01  9.8894E-01
ac ID =   33377                -8.4764E-01  2.5038E+01 -2.9972E-01  2.5054E+01
                               -4.3117E-01  3.2614E+01 -3.5417E+01  2.5147E+03

           1    1.72003E+01     2.4671E-01  1.0567E-02  8.7492E-01  9.0910E-01
ac ID =   33377                -1.0172E+00  2.3448E+01 -2.8199E-01  2.3471E+01
                               -4.3402E-01  3.2790E+01 -3.5350E+01  2.5147E+03

           1    1.73003E+01     2.4093E-01 -1.2360E-02  8.3237E-01  8.6663E-01
ac ID =   33377                -4.3851E-01  2.3213E+01 -5.1916E-01  2.3223E+01
                               -4.3694E-01  3.2966E+01 -3.5286E+01  2.5147E+03

           1    1.74003E+01     2.2930E-01  2.1395E-02  8.6946E-01  8.9944E-01
ac ID =   33377                -1.0888E+00  2.2183E+01 -3.5701E-01  2.2212E+01
                               -4.3995E-01  3.3142E+01 -3.5225E+01  2.5147E+03

           1    1.75002E+01     2.3187E-01 -1.3391E-03  8.8212E-01  9.1209E-01
ac ID =   33377                -4.6486E-01  2.1155E+01 -1.7108E-01  2.1161E+01
                               -4.4299E-01  3.3317E+01 -3.5167E+01  2.5147E+03

           1    1.76002E+01     2.3168E-01 -2.9295E-03  8.5911E-01  8.8981E-01
ac ID =   33377                -5.6182E-01  2.0611E+01 -8.4740E-02  2.0619E+01
                               -4.4606E-01  3.3492E+01 -3.5111E+01  2.5147E+03

           1    1.77002E+01     2.2056E-01 -2.3696E-04  8.0046E-01  8.3029E-01
ac ID =   33377                -2.6283E-01  2.0241E+01 -2.9697E-01  2.0245E+01
                               -4.4920E-01  3.3666E+01 -3.5059E+01  2.5147E+03

           1    1.78002E+01     2.0998E-01  7.3517E-03  7.8228E-01  8.1000E-01
ac ID =   33377                -7.8220E-01  2.0168E+01 -4.8346E-01  2.0189E+01
                               -4.5236E-01  3.3840E+01 -3.5009E+01  2.5147E+03

           1    1.79002E+01     1.9813E-01 -3.5492E-03  8.1710E-01  8.4078E-01
ac ID =   33377                -2.6202E-01  1.8409E+01 -3.8340E-01  1.8415E+01
                               -4.5555E-01  3.4014E+01 -3.4961E+01  2.5147E+03

           1    1.80002E+01     2.1270E-01  3.1327E-03  7.6246E-01  7.9158E-01
ac ID =   33377                -4.8102E-01  1.7934E+01 -3.8397E-02  1.7940E+01
                               -4.5878E-01  3.4186E+01 -3.4916E+01  2.5147E+03

           1    1.81002E+01     2.0904E-01 -6.0472E-03  7.1535E-01  7.4530E-01
ac ID =   33377                -5.4339E-01  1.6642E+01 -4.0169E-01  1.6656E+01
                               -4.6201E-01  3.4359E+01 -3.4873E+01  2.5147E+03

           1    1.82002E+01     2.0756E-01  9.9890E-03  6.9000E-01  7.2062E-01
ac ID =   33377                -6.9189E-01  1.6723E+01 -7.7932E-01  1.6756E+01
                               -4.6534E-01  3.4530E+01 -3.4833E+01  2.5147E+03

           1    1.83002E+01     2.1774E-01  4.6057E-03  6.7265E-01  7.0703E-01
ac ID =   33377                -8.4182E-01  1.6850E+01 -3.5903E-01  1.6875E+01
                               -4.6866E-01  3.4702E+01 -3.4795E+01  2.5147E+03

           1    1.84002E+01     2.1139E-01 -4.0062E-03  6.6782E-01  7.0049E-01
ac ID =   33377                -4.4876E-01  1.6403E+01 -4.0397E-01  1.6415E+01
                               -4.7205E-01  3.4872E+01 -3.4759E+01  2.5147E+03

           1    1.85001E+01     2.3215E-01  1.9054E-03  6.0147E-01  6.4472E-01
ac ID =   33377                -6.8554E-01  1.5610E+01 -1.2720E-01  1.5626E+01
                               -4.7542E-01  3.5042E+01 -3.4725E+01  2.5147E+03

           1    1.86001E+01     2.1236E-01  3.5279E-03  5.4217E-01  5.8229E-01
ac ID =   33377                -4.0042E-01  1.4196E+01 -7.3841E-02  1.4202E+01
                               -4.7893E-01  3.5211E+01 -3.4693E+01  2.5147E+03

           1    1.87001E+01     2.1262E-01 -1.1009E-02  5.1481E-01  5.5710E-01
ac ID =   33377                -3.5470E-01  1.3748E+01 -4.5485E-01  1.3760E+01
                               -4.8240E-01  3.5380E+01 -3.4663E+01  2.5147E+03

           1    1.88001E+01     2.0433E-01  8.2465E-03  5.1691E-01  5.5589E-01
ac ID =   33377                -4.9536E-01  1.2856E+01 -4.7537E-01  1.2874E+01
                               -4.8587E-01  3.5547E+01 -3.4635E+01  2.5147E+03

           1    1.89001E+01     2.1409E-01 -1.0126E-02  4.6526E-01  5.1226E-01
ac ID =   33377                -2.5233E-01  1.2577E+01 -3.4938E-01  1.2584E+01
                               -4.8946E-01  3.5714E+01 -3.4608E+01  2.5147E+03

           1    1.90001E+01     2.1324E-01  8.7078E-03  3.9947E-01  4.5290E-01
ac ID =   33377                -4.3737E-01  1.1752E+01 -4.2126E-01  1.1767E+01
                               -4.9304E-01  3.5880E+01 -3.4583E+01  2.5147E+03

           1    1.91001E+01     2.1617E-01  5.5594E-03  3.8933E-01  4.4536E-01
ac ID =   33377                -6.8209E-01  1.0915E+01 -3.7804E-01  1.0942E+01
                               -4.9662E-01  3.6045E+01 -3.4559E+01  2.5147E+03

           1    1.92001E+01     1.8902E-01  9.9190E-03  4.0522E-01  4.4725E-01
ac ID =   33377                -4.7513E-01  9.6105E+00 -4.5721E-01  9.6331E+00
                               -5.0030E-01  3.6210E+01 -3.4537E+01  2.5147E+03

           1    1.93001E+01     1.9102E-01 -5.4400E-03  3.5430E-01  4.0255E-01
ac ID =   33377                -3.9816E-01  8.6375E+00 -2.7762E-01  8.6511E+00
                               -5.0396E-01  3.6374E+01 -3.4516E+01  2.5147E+03

           1    1.94001E+01     1.9502E-01  1.0304E-02  3.0079E-01  3.5863E-01
ac ID =   33377                -7.7709E-01  8.1301E+00 -4.4786E-01  8.1795E+00
                               -5.0766E-01  3.6536E+01 -3.4496E+01  2.5147E+03

           1    1.95000E+01     1.8234E-01  2.8688E-03  2.6409E-01  3.2093E-01
ac ID =   33377                -4.0230E-01  6.7932E+00 -2.5018E-01  6.8097E+00
                               -5.1146E-01  3.6698E+01 -3.4477E+01  2.5147E+03

           1    1.96000E+01     1.7369E-01  8.1047E-04  2.5379E-01  3.0754E-01
ac ID =   33377                -9.2167E-02  5.6087E+00 -3.4773E-01  5.6202E+00
                               -5.1522E-01  3.6860E+01 -3.4459E+01  2.5147E+03

           1    1.97005E+01     1.4252E-01  3.5534E-04  2.5114E-01  2.8876E-01
ac ID =   33377                -6.6104E-01  4.1157E+00 -4.7352E-01  4.1953E+00
                               -5.1904E-01  3.7021E+01 -3.4442E+01  2.5147E+03

           1    1.98005E+01     1.5293E-01  5.8579E-03  1.6373E-01  2.2412E-01
ac ID =   33377                -3.7330E-01  3.3612E+00 -3.4065E-01  3.3990E+00
                               -5.2295E-01  3.7181E+01 -3.4425E+01  2.5147E+03

           1    1.99005E+01     1.5776E-01 -5.6250E-03  1.2651E-01  2.0229E-01
ac ID =   33377                -2.8985E-01  2.7776E+00 -3.3634E-01  2.8128E+00
                               -5.2680E-01  3.7339E+01 -3.4410E+01  2.5147E+03

           1    2.00005E+01     1.5147E-01  1.3808E-03  8.2526E-02  1.7250E-01
ac ID =   33377                -5.6956E-01  1.8672E+00  1.1547E-01  1.9555E+00
                               -5.3070E-01  3.7498E+01 -3.4394E+01  2.5147E+03

           1    2.01005E+01     1.5202E-01  7.3115E-03  6.1616E-02  1.6420E-01
ac ID =   33377                -3.3809E-01  1.5923E+00 -2.2702E-01  1.6436E+00
                               -5.3472E-01  3.7655E+01 -3.4380E+01  2.5147E+03

           1    2.02005E+01     1.5778E-01 -3.4468E-05  1.2003E-02  1.5824E-01
ac ID =   33377                -4.6349E-02  5.7901E-01 -2.6967E-01  6.4041E-01
                               -5.3867E-01  3.7812E+01 -3.4365E+01  2.5147E+03

           1    2.03005E+01     1.2724E-01  4.6900E-04 -5.2151E-02  1.3751E-01
ac ID =   33377                -3.4290E-02 -6.8100E-01 -1.8485E-01  7.0648E-01
                               -5.4265E-01  3.7968E+01 -3.4350E+01  2.5147E+03

           1    2.04005E+01     1.4527E-01  5.0909E-03 -1.0900E-01  1.8169E-01
ac ID =   33377                 4.2782E-02 -7.0553E-01 -2.7928E-01  7.6000E-01
                               -5.4671E-01  3.8122E+01 -3.4336E+01  2.5147E+03

           1    2.05004E+01     1.6132E-01 -4.7032E-03 -1.0137E-01  1.9058E-01
ac ID =   33377                 5.2138E-01 -9.5316E-01 -2.5277E-01  1.1155E+00
                               -5.5065E-01  3.8277E+01 -3.4321E+01  2.5147E+03

           1    2.06004E+01     1.3713E-01 -1.6154E-02 -1.2581E-01  1.8680E-01
ac ID =   33377                 7.6619E-01 -1.5479E+00 -2.2791E-01  1.7421E+00
                               -5.5462E-01  3.8430E+01 -3.4306E+01  2.5147E+03

           1    2.07004E+01     1.5560E-01  1.4213E-02 -1.5983E-01  2.2351E-01
ac ID =   33377                 3.1731E-01 -1.6905E+00 -2.4829E-01  1.7378E+00
                               -5.5859E-01  3.8583E+01 -3.4291E+01  2.5147E+03

           1    2.08004E+01     1.6958E-01 -2.1814E-02 -1.6720E-01  2.3914E-01
ac ID =   33377                 8.4742E-01 -1.6298E+00 -4.8070E-01  1.8988E+00
                               -5.6247E-01  3.8735E+01 -3.4276E+01  2.5147E+03

           1    2.09004E+01     1.8532E-01 -4.7316E-03 -1.9154E-01  2.6656E-01
ac ID =   33377                 7.4113E-01 -1.8051E+00 -1.4858E-01  1.9569E+00
                               -5.6632E-01  3.8885E+01 -3.4260E+01  2.5147E+03

           1    2.10004E+01     1.5488E-01 -9.8941E-04 -1.7775E-01  2.3577E-01
ac ID =   33377                 6.2315E-01 -2.3774E+00 -2.6769E-01  2.4722E+00
                               -5.7017E-01  3.9036E+01 -3.4244E+01  2.5147E+03

           1    2.11004E+01     1.8394E-01 -1.1240E-02 -1.9162E-01  2.6586E-01
ac ID =   33377                 1.0194E+00 -2.3298E+00 -7.2737E-02  2.5441E+00
                               -5.7392E-01  3.9185E+01 -3.4228E+01  2.5147E+03

           1    2.12004E+01     1.8979E-01 -1.7686E-02 -2.2762E-01  2.9689E-01
ac ID =   33377                 1.1742E+00 -2.6611E+00 -1.4054E-01  2.9120E+00
                               -5.7762E-01  3.9333E+01 -3.4211E+01  2.5147E+03

           1    2.13004E+01     1.7393E-01 -9.4665E-03 -2.4546E-01  3.0098E-01
ac ID =   33377                 1.0168E+00 -3.2858E+00 -3.9514E-01  3.4622E+00
                               -5.8130E-01  3.9480E+01 -3.4193E+01  2.5147E+03

           1    2.14004E+01     1.9558E-01 -1.0323E-02 -2.5730E-01  3.2335E-01
ac ID =   33377                 1.4081E+00 -3.0850E+00 -4.3711E-01  3.4192E+00
                               -5.8487E-01  3.9627E+01 -3.4176E+01  2.5147E+03

           1    2.15003E+01     1.9682E-01 -2.0675E-02 -2.7857E-01  3.4171E-01
ac ID =   33377                 1.5174E+00 -3.3863E+00 -1.8044E-01  3.7151E+00
                               -5.8836E-01  3.9772E+01 -3.4157E+01  2.5147E+03

           1    2.16003E+01     2.0968E-01 -1.0852E-02 -3.1979E-01  3.8255E-01
ac ID =   33377                 1.4075E+00 -3.5359E+00 -8.5276E-02  3.8066E+00
                               -5.9180E-01  3.9917E+01 -3.4138E+01  2.5147E+03

           1    2.17003E+01     2.0830E-01 -5.7797E-03 -3.4978E-01  4.0715E-01
ac ID =   33377                 1.1372E+00 -3.7771E+00 -1.4733E-01  3.9473E+00
                               -5.9516E-01  4.0060E+01 -3.4119E+01  2.5147E+03

           1    2.18003E+01     2.1697E-01 -1.5507E-02 -3.8080E-01  4.3855E-01
ac ID =   33377                 1.5452E+00 -3.8452E+00 -1.9788E-01  4.1487E+00
                               -5.9841E-01  4.0203E+01 -3.4098E+01  2.5147E+03

           1    2.19003E+01     2.2032E-01 -2.1098E-02 -4.0312E-01  4.5988E-01
ac ID =   33377                 1.3844E+00 -4.0744E+00 -3.4768E-01  4.3172E+00
                               -6.0161E-01  4.0344E+01 -3.4077E+01  2.5147E+03

           1    2.20003E+01     2.1887E-01 -4.7765E-03 -4.0845E-01  4.6342E-01
ac ID =   33377                 1.3413E+00 -4.5444E+00 -2.2284E-01  4.7434E+00
                               -6.0473E-01  4.0485E+01 -3.4055E+01  2.5147E+03

           1    2.21003E+01     2.3194E-01 -2.3564E-02 -4.4277E-01  5.0039E-01
ac ID =   33377                 1.6279E+00 -4.5028E+00 -7.5695E-02  4.7886E+00
                               -6.0772E-01  4.0624E+01 -3.4032E+01  2.5147E+03

           1    2.22003E+01     2.2256E-01 -2.3791E-02 -4.4748E-01  5.0034E-01
ac ID =   33377                 1.6142E+00 -5.1769E+00 -2.2031E-01  5.4272E+00
                               -6.1063E-01  4.0763E+01 -3.4008E+01  2.5147E+03

           1    2.23003E+01     2.2937E-01 -5.0685E-03 -4.4409E-01  4.9985E-01
ac ID =   33377                 1.4576E+00 -5.5800E+00 -3.8497E-01  5.7801E+00
                               -6.1350E-01  4.0900E+01 -3.3983E+01  2.5147E+03

           1    2.24003E+01     2.2595E-01 -1.5440E-02 -4.4250E-01  4.9709E-01
ac ID =   33377                 1.5310E+00 -6.1193E+00 -4.9863E-01  6.3276E+00
                               -6.1620E-01  4.1037E+01 -3.3957E+01  2.5147E+03

           1    2.25002E+01     2.2092E-01 -2.1793E-02 -4.5175E-01  5.0335E-01
ac ID =   33377                 1.6378E+00 -6.9888E+00 -2.8052E-01  7.1836E+00
                               -6.1881E-01  4.1172E+01 -3.3930E+01  2.5147E+03

           1    2.26002E+01     2.1206E-01 -1.2781E-02 -4.4576E-01  4.9380E-01
ac ID =   33377                 1.5501E+00 -8.1274E+00 -2.6432E-01  8.2782E+00
                               -6.2137E-01  4.1307E+01 -3.3901E+01  2.5147E+03

           1    2.27002E+01     2.0743E-01 -4.4808E-03 -4.4533E-01  4.9129E-01
ac ID =   33377                 1.1602E+00 -9.0387E+00 -3.8076E-01  9.1208E+00
                               -6.2383E-01  4.1440E+01 -3.3872E+01  2.5147E+03

           1    2.28002E+01     1.9989E-01 -2.1407E-02 -4.3761E-01  4.8158E-01
ac ID =   33377                 1.3800E+00 -1.0238E+01 -1.5144E-01  1.0332E+01
                               -6.2617E-01  4.1573E+01 -3.3842E+01  2.5147E+03

           1    2.29002E+01     1.8002E-01 -9.3469E-03 -4.3655E-01  4.7230E-01
ac ID =   33377                 1.2650E+00 -1.1551E+01 -2.2884E-01  1.1622E+01
                               -6.2849E-01  4.1705E+01 -3.3810E+01  2.5147E+03

           1    2.30002E+01     1.8672E-01 -6.3538E-03 -4.5196E-01  4.8905E-01
ac ID =   33377                 7.7983E-01 -1.2323E+01 -3.9607E-01  1.2354E+01
                               -6.3072E-01  4.1836E+01 -3.3778E+01  2.5147E+03

           1    2.31002E+01     1.7153E-01 -1.1228E-04 -4.5126E-01  4.8276E-01
ac ID =   33377                 7.2140E-01 -1.3556E+01 -3.8663E-01  1.3581E+01
                               -6.3290E-01  4.1967E+01 -3.3744E+01  2.5147E+03

           1    2.32002E+01     1.6401E-01 -1.4730E-02 -4.5423E-01  4.8315E-01
ac ID =   33377                 1.0714E+00 -1.4691E+01 -6.3172E-01  1.4744E+01
                               -6.3502E-01  4.2097E+01 -3.3709E+01  2.5147E+03

           1    2.33002E+01     1.5529E-01 -2.7791E-03 -4.6353E-01  4.8886E-01
ac ID =   33377                 7.5985E-01 -1.5725E+01 -3.9126E-01  1.5748E+01
                               -6.3709E-01  4.2226E+01 -3.3673E+01  2.5147E+03

           1    2.34002E+01     1.6061E-01 -3.4810E-03 -4.6221E-01  4.8933E-01
ac ID =   33377                 7.2887E-01 -1.6347E+01 -3.0131E-01  1.6366E+01
                               -6.3913E-01  4.2354E+01 -3.3635E+01  2.5147E+03

           1    2.35001E+01     1.5403E-01 -4.3008E-03 -4.6852E-01  4.9321E-01
ac ID =   33377                 7.8609E-01 -1.7302E+01 -2.6352E-01  1.7322E+01
                               -6.4114E-01  4.2482E+01 -3.3597E+01  2.5147E+03

           1    2.36001E+01     1.4120E-01 -7.4646E-03 -4.6352E-01  4.8461E-01
ac ID =   33377                 5.7045E-01 -1.8236E+01 -4.4062E-01  1.8251E+01
                               -6.4308E-01  4.2610E+01 -3.3557E+01  2.5147E+03

           1    2.37001E+01     1.5056E-01  3.1433E-04 -4.4703E-01  4.7171E-01
ac ID =   33377                 3.4602E-01 -1.8596E+01 -5.7735E-01  1.8608E+01
                               -6.4502E-01  4.2737E+01 -3.3516E+01  2.5147E+03

           1    2.38001E+01     1.3841E-01  7.2904E-04 -4.3367E-01  4.5522E-01
ac ID =   33377                 4.5479E-01 -1.9529E+01 -4.9753E-01  1.9541E+01
                               -6.4694E-01  4.2863E+01 -3.3473E+01  2.5147E+03

           1    2.39001E+01     1.3748E-01 -1.9164E-03 -4.2860E-01  4.5011E-01
ac ID =   33377                 2.9835E-01 -1.9939E+01 -2.6543E-01  1.9943E+01
                               -6.4882E-01  4.2989E+01 -3.3429E+01  2.5147E+03

           1    2.40001E+01     1.4177E-01 -1.8035E-03 -4.1319E-01  4.3684E-01
ac ID =   33377                 3.9336E-01 -2.0108E+01 -2.9778E-01  2.0114E+01
                               -6.5071E-01  4.3115E+01 -3.3384E+01  2.5147E+03

           1    2.41001E+01     1.4355E-01 -1.2973E-03 -3.9443E-01  4.1974E-01
ac ID =   33377                 4.3814E-01 -2.0519E+01 -4.7134E-01  2.0529E+01
                               -6.5259E-01  4.3240E+01 -3.3338E+01  2.5147E+03

           1    2.42001E+01     1.3726E-01 -7.6355E-03 -3.7112E-01  3.9577E-01
ac ID =   33377                 6.1699E-01 -2.1250E+01 -5.3056E-01  2.1266E+01
                               -6.5439E-01  4.3365E+01 -3.3291E+01  2.5147E+03

           1    2.43001E+01     1.3204E-01 -1.0009E-02 -3.5162E-01  3.7573E-01
ac ID =   33377                 6.2150E-01 -2.1899E+01 -3.4855E-01  2.1910E+01
                               -6.5621E-01  4.3490E+01 -3.3242E+01  2.5147E+03

           1    2.44001E+01     1.2901E-01  2.8005E-03 -3.4515E-01  3.6848E-01
ac ID =   33377                 4.4082E-01 -2.2758E+01 -1.8404E-01  2.2763E+01
                               -6.5801E-01  4.3614E+01 -3.3192E+01  2.5147E+03

           1    2.45005E+01     1.2118E-01 -3.5520E-03 -3.3948E-01  3.6048E-01
ac ID =   33377                 3.2424E-01 -2.3313E+01 -3.1935E-01  2.3318E+01
                               -6.5975E-01  4.3738E+01 -3.3141E+01  2.5147E+03

           1    2.46005E+01     1.2508E-01 -6.3793E-03 -3.1094E-01  3.3522E-01
ac ID =   33377                 4.7490E-01 -2.3652E+01 -4.6414E-01  2.3662E+01
                               -6.6149E-01  4.3862E+01 -3.3090E+01  2.5147E+03

           1    2.47005E+01     1.2525E-01 -1.2546E-03 -2.9019E-01  3.1607E-01
ac ID =   33377                 3.3353E-01 -2.3957E+01 -4.8900E-01  2.3965E+01
                               -6.6321E-01  4.3986E+01 -3.3037E+01  2.5147E+03

           1    2.48005E+01     1.1453E-01  2.1029E-03 -2.9006E-01  3.1186E-01
ac ID =   33377                 2.9621E-01 -2.4689E+01 -3.8770E-01  2.4694E+01
                               -6.6490E-01  4.4109E+01 -3.2983E+01  2.5147E+03

           1    2.49005E+01     1.0984E-01 -6.1342E-03 -2.7199E-01  2.9339E-01
ac ID =   33377                 5.5529E-01 -2.5484E+01 -2.2897E-01  2.5491E+01
                               -6.6658E-01  4.4232E+01 -3.2928E+01  2.5147E+03

