 LSTC 50th% Full_FE H-III Dummy (Beta Version, February 17, 2019)        
                    ls-dyna smp s R16 R16.0_619_d222963 date 03/18/2025

{BEGIN LEGEND}
 Entity #        Title
    22626                                                                                     
{END LEGEND}




 n o d a l   p r i n t   o u t   f o r   t i m e  s t e p       1                              ( at time 0.0000000E+00 )

 nodal point  x-disp     y-disp      z-disp      x-vel       y-vel       z-vel      x-accl      y-accl      z-accl      x-coor      y-coor      z-coor
    22626  0.00000E+00 0.00000E+00 0.00000E+00 0.00000E+00 0.00000E+00-3.12000E+00 0.00000E+00 0.00000E+00 0.00000E+00 4.79642E+01-2.20298E+01 7.33850E+00



 n o d a l   p r i n t   o u t   f o r   t i m e  s t e p       1                              ( at time 0.0000000E+00 )

 nodal point  x-rot      y-rot       z-rot       x-rot vel   y-rot vel   z-rot vel   x-rot acc   y-rot acc   z-rot acc
    22626  0.00000E+00 0.00000E+00 0.00000E+00 0.00000E+00 0.00000E+00 0.00000E+00 0.00000E+00 0.00000E+00 0.00000E+00



 n o d a l   p r i n t   o u t   f o r   t i m e  s t e p     201                              ( at time 9.9989993E-02 )

 nodal point  x-disp     y-disp      z-disp      x-vel       y-vel       z-vel      x-accl      y-accl      z-accl      x-coor      y-coor      z-coor
    22626  8.34661E-07-4.04322E-06-3.12016E-01 4.76929E-05-4.96313E-04-3.12074E+00 4.76977E-04-4.96362E-03-7.42748E-03 4.79642E+01-2.20298E+01 7.02648E+00



 n o d a l   p r i n t   o u t   f o r   t i m e  s t e p     201                              ( at time 9.9989993E-02 )

 nodal point  x-rot      y-rot       z-rot       x-rot vel   y-rot vel   z-rot vel   x-rot acc   y-rot acc   z-rot acc
    22626  9.61872E-09 3.04247E-08 5.27396E-08 1.30727E-06 2.72343E-06 5.21466E-06 1.30740E-05 2.72370E-05 5.21518E-05



 n o d a l   p r i n t   o u t   f o r   t i m e  s t e p     401                              ( at time 1.9997999E-01 )

 nodal point  x-disp     y-disp      z-disp      x-vel       y-vel       z-vel      x-accl      y-accl      z-accl      x-coor      y-coor      z-coor
    22626 -5.12638E-05-5.21491E-04-6.23853E-01-1.09594E-03-1.11128E-02-3.11558E+00-1.14375E-02-1.06175E-01 5.16180E-02 4.79641E+01-2.20303E+01 6.71465E+00



 n o d a l   p r i n t   o u t   f o r   t i m e  s t e p     401                              ( at time 1.9997999E-01 )

 nodal point  x-rot      y-rot       z-rot       x-rot vel   y-rot vel   z-rot vel   x-rot acc   y-rot acc   z-rot acc
    22626  4.60595E-07 1.33040E-06 2.50334E-06 2.66324E-06 1.90835E-05 3.50072E-05 1.35610E-05 1.63617E-04 2.97955E-04



 n o d a l   p r i n t   o u t   f o r   t i m e  s t e p     601                              ( at time 2.9996998E-01 )

 nodal point  x-disp     y-disp      z-disp      x-vel       y-vel       z-vel      x-accl      y-accl      z-accl      x-coor      y-coor      z-coor
    22626 -2.41713E-05-1.97534E-03-9.35239E-01 1.67365E-03-1.60231E-02-3.11416E+00 2.76987E-02-4.91083E-02 1.41873E-02 4.79642E+01-2.20318E+01 6.40326E+00



 n o d a l   p r i n t   o u t   f o r   t i m e  s t e p     601                              ( at time 2.9996998E-01 )

 nodal point  x-rot      y-rot       z-rot       x-rot vel   y-rot vel   z-rot vel   x-rot acc   y-rot acc   z-rot acc
    22626  6.75437E-07 2.41520E-06 4.83340E-06 8.30636E-06 5.37880E-06 1.47185E-05 5.64369E-05-1.37060E-04-2.02908E-04



 n o d a l   p r i n t   o u t   f o r   t i m e  s t e p     801                              ( at time 3.9995997E-01 )

 nodal point  x-disp     y-disp      z-disp      x-vel       y-vel       z-vel      x-accl      y-accl      z-accl      x-coor      y-coor      z-coor
    22626  6.35700E-05-3.56855E-03-1.24663E+00 2.60864E-04-1.73233E-02-3.11357E+00-1.41293E-02-1.30031E-02 5.93006E-03 4.79642E+01-2.20334E+01 6.09187E+00



 n o d a l   p r i n t   o u t   f o r   t i m e  s t e p     801                              ( at time 3.9995997E-01 )

 nodal point  x-rot      y-rot       z-rot       x-rot vel   y-rot vel   z-rot vel   x-rot acc   y-rot acc   z-rot acc
    22626  1.58168E-06 3.65958E-06 6.63584E-06 6.26057E-06 2.36711E-05 3.70788E-05-2.04599E-05 1.82941E-04 2.23626E-04



 n o d a l   p r i n t   o u t   f o r   t i m e  s t e p    1001                              ( at time 4.9994997E-01 )

 nodal point  x-disp     y-disp      z-disp      x-vel       y-vel       z-vel      x-accl      y-accl      z-accl      x-coor      y-coor      z-coor
    22626  8.51788E-05-5.61453E-03-1.55783E+00 9.69704E-04-2.36663E-02-3.11094E+00 7.08911E-03-6.34365E-02 2.63121E-02 4.79643E+01-2.20354E+01 5.78067E+00



 n o d a l   p r i n t   o u t   f o r   t i m e  s t e p    1001                              ( at time 4.9994997E-01 )

 nodal point  x-rot      y-rot       z-rot       x-rot vel   y-rot vel   z-rot vel   x-rot acc   y-rot acc   z-rot acc
    22626  1.49459E-06 6.50301E-06 1.15285E-05-4.84476E-06 4.22050E-05 6.81097E-05-1.11064E-04 1.85358E-04 3.10340E-04



 n o d a l   p r i n t   o u t   f o r   t i m e  s t e p    1201                              ( at time 5.9993996E-01 )

 nodal point  x-disp     y-disp      z-disp      x-vel       y-vel       z-vel      x-accl      y-accl      z-accl      x-coor      y-coor      z-coor
    22626  7.99014E-05-8.09583E-03-1.86890E+00-3.12472E-04-2.58338E-02-3.11100E+00-1.28230E-02-2.16776E-02-5.74646E-04 4.79643E+01-2.20379E+01 5.46960E+00



 n o d a l   p r i n t   o u t   f o r   t i m e  s t e p    1201                              ( at time 5.9993996E-01 )

 nodal point  x-rot      y-rot       z-rot       x-rot vel   y-rot vel   z-rot vel   x-rot acc   y-rot acc   z-rot acc
    22626  1.25536E-06 9.54806E-06 1.69880E-05-2.30168E-06 2.38526E-05 4.73669E-05 2.54333E-05-1.83542E-04-2.07449E-04



 n o d a l   p r i n t   o u t   f o r   t i m e  s t e p    1401                              ( at time 6.9992995E-01 )

 nodal point  x-disp     y-disp      z-disp      x-vel       y-vel       z-vel      x-accl      y-accl      z-accl      x-coor      y-coor      z-coor
    22626  7.54010E-05-1.09519E-02-2.17980E+00 9.80938E-04-3.19576E-02-3.10787E+00 1.29354E-02-6.12439E-02 3.12503E-02 4.79643E+01-2.20407E+01 5.15870E+00



 n o d a l   p r i n t   o u t   f o r   t i m e  s t e p    1401                              ( at time 6.9992995E-01 )

 nodal point  x-rot      y-rot       z-rot       x-rot vel   y-rot vel   z-rot vel   x-rot acc   y-rot acc   z-rot acc
    22626  1.08876E-06 1.24294E-05 2.12697E-05-2.14429E-06 3.38508E-05 5.06406E-05 1.57407E-06 9.99917E-05 3.27406E-05



 n o d a l   p r i n t   o u t   f o r   t i m e  s t e p    1601                              ( at time 7.9991994E-01 )

 nodal point  x-disp     y-disp      z-disp      x-vel       y-vel       z-vel      x-accl      y-accl      z-accl      x-coor      y-coor      z-coor
    22626  2.17638E-04-1.44595E-02-2.49045E+00 1.68708E-03-3.62225E-02-3.10635E+00 7.06216E-03-4.26526E-02 1.51864E-02 4.79644E+01-2.20443E+01 4.84806E+00



 n o d a l   p r i n t   o u t   f o r   t i m e  s t e p    1601                              ( at time 7.9991994E-01 )

 nodal point  x-rot      y-rot       z-rot       x-rot vel   y-rot vel   z-rot vel   x-rot acc   y-rot acc   z-rot acc
    22626  1.05083E-06 1.60874E-05 2.71688E-05 3.60722E-06 4.25035E-05 6.30860E-05 5.75208E-05 8.65356E-05 1.24466E-04



 n o d a l   p r i n t   o u t   f o r   t i m e  s t e p    1801                              ( at time 8.9990994E-01 )

 nodal point  x-disp     y-disp      z-disp      x-vel       y-vel       z-vel      x-accl      y-accl      z-accl      x-coor      y-coor      z-coor
    22626  3.34109E-04-1.80314E-02-2.80114E+00 3.14963E-05-3.56206E-02-3.10789E+00-1.65575E-02 6.01944E-03-1.53700E-02 4.79645E+01-2.20478E+01 4.53736E+00



 n o d a l   p r i n t   o u t   f o r   t i m e  s t e p    1801                              ( at time 8.9990994E-01 )

 nodal point  x-rot      y-rot       z-rot       x-rot vel   y-rot vel   z-rot vel   x-rot acc   y-rot acc   z-rot acc
    22626  1.10552E-06 1.94041E-05 3.25539E-05-1.41736E-06 2.88863E-05 4.93866E-05-5.02509E-05-1.36185E-04-1.37008E-04



 n o d a l   p r i n t   o u t   f o r   t i m e  s t e p    2001                              ( at time 9.9989993E-01 )

 nodal point  x-disp     y-disp      z-disp      x-vel       y-vel       z-vel      x-accl      y-accl      z-accl      x-coor      y-coor      z-coor
    22626  2.97007E-04-2.16573E-02-3.11191E+00-1.91938E-04-3.74303E-02-3.10817E+00-2.23457E-03-1.80992E-02-2.84939E-03 4.79645E+01-2.20514E+01 4.22659E+00



 n o d a l   p r i n t   o u t   f o r   t i m e  s t e p    2001                              ( at time 9.9989993E-01 )

 nodal point  x-rot      y-rot       z-rot       x-rot vel   y-rot vel   z-rot vel   x-rot acc   y-rot acc   z-rot acc
    22626  1.05870E-06 2.26286E-05 3.76123E-05 1.14623E-06 3.47290E-05 6.19254E-05 2.56385E-05 5.84321E-05 1.25401E-04



 n o d a l   p r i n t   o u t   f o r   t i m e  s t e p    2201                              ( at time 1.0998899E+00 )

 nodal point  x-disp     y-disp      z-disp      x-vel       y-vel       z-vel      x-accl      y-accl      z-accl      x-coor      y-coor      z-coor
    22626  3.48180E-04-2.54981E-02-3.42268E+00 5.55242E-04-3.91094E-02-3.10778E+00 7.47255E-03-1.67929E-02 3.94861E-03 4.79645E+01-2.20553E+01 3.91582E+00



 n o d a l   p r i n t   o u t   f o r   t i m e  s t e p    2201                              ( at time 1.0998899E+00 )

 nodal point  x-rot      y-rot       z-rot       x-rot vel   y-rot vel   z-rot vel   x-rot acc   y-rot acc   z-rot acc
    22626  1.33763E-06 2.60963E-05 4.35003E-05 6.89668E-06 3.11993E-05 4.33597E-05 5.75102E-05-3.53002E-05-1.85676E-04



 n o d a l   p r i n t   o u t   f o r   t i m e  s t e p    2401                              ( at time 1.1998799E+00 )

 nodal point  x-disp     y-disp      z-disp      x-vel       y-vel       z-vel      x-accl      y-accl      z-accl      x-coor      y-coor      z-coor
    22626  4.69317E-04-2.93872E-02-3.73349E+00 1.51638E-03-3.83396E-02-3.10938E+00 9.61237E-03 7.69919E-03-1.59995E-02 4.79646E+01-2.20592E+01 3.60501E+00



 n o d a l   p r i n t   o u t   f o r   t i m e  s t e p    2401                              ( at time 1.1998799E+00 )

 nodal point  x-rot      y-rot       z-rot       x-rot vel   y-rot vel   z-rot vel   x-rot acc   y-rot acc   z-rot acc
    22626  1.92127E-06 2.85756E-05 4.69177E-05 7.03954E-06 2.13254E-05 2.79570E-05 1.42875E-06-9.87493E-05-1.54042E-04



 n o d a l   p r i n t   o u t   f o r   t i m e  s t e p    2601                              ( at time 1.2998699E+00 )

 nodal point  x-disp     y-disp      z-disp      x-vel       y-vel       z-vel      x-accl      y-accl      z-accl      x-coor      y-coor      z-coor
    22626  5.65032E-04-3.30619E-02-4.04453E+00 4.76321E-04-3.48072E-02-3.11243E+00-1.04017E-02 3.53275E-02-3.05373E-02 4.79647E+01-2.20629E+01 3.29397E+00



 n o d a l   p r i n t   o u t   f o r   t i m e  s t e p    2601                              ( at time 1.2998699E+00 )

 nodal point  x-rot      y-rot       z-rot       x-rot vel   y-rot vel   z-rot vel   x-rot acc   y-rot acc   z-rot acc
    22626  2.44301E-06 3.05710E-05 4.96143E-05 4.39146E-07 2.26936E-05 3.47076E-05-6.60105E-05 1.36837E-05 6.75126E-05



 n o d a l   p r i n t   o u t   f o r   t i m e  s t e p    2801                              ( at time 1.3998599E+00 )

 nodal point  x-disp     y-disp      z-disp      x-vel       y-vel       z-vel      x-accl      y-accl      z-accl      x-coor      y-coor      z-coor
    22626  5.46605E-04-3.62696E-02-4.35594E+00-2.88845E-04-2.95447E-02-3.11626E+00-7.65242E-03 5.26301E-02-3.82414E-02 4.79647E+01-2.20661E+01 2.98256E+00



 n o d a l   p r i n t   o u t   f o r   t i m e  s t e p    2801                              ( at time 1.3998599E+00 )

 nodal point  x-rot      y-rot       z-rot       x-rot vel   y-rot vel   z-rot vel   x-rot acc   y-rot acc   z-rot acc
    22626  2.34363E-06 3.26226E-05 5.25584E-05-1.17754E-06 1.96330E-05 2.10423E-05-1.61684E-05-3.06084E-05-1.36666E-04



 n o d a l   p r i n t   o u t   f o r   t i m e  s t e p    3001                              ( at time 1.4998499E+00 )

 nodal point  x-disp     y-disp      z-disp      x-vel       y-vel       z-vel      x-accl      y-accl      z-accl      x-coor      y-coor      z-coor
    22626  5.43182E-04-3.91240E-02-4.66765E+00 5.74688E-04-2.78374E-02-3.11831E+00 8.63619E-03 1.70750E-02-2.05370E-02 4.79647E+01-2.20689E+01 2.67085E+00



 n o d a l   p r i n t   o u t   f o r   t i m e  s t e p    3001                              ( at time 1.4998499E+00 )

 nodal point  x-rot      y-rot       z-rot       x-rot vel   y-rot vel   z-rot vel   x-rot acc   y-rot acc   z-rot acc
    22626  2.33370E-06 3.38615E-05 5.36537E-05 2.40283E-06 3.55526E-06 7.68434E-07 3.58072E-05-1.60794E-04-2.02759E-04



 n o d a l   p r i n t   o u t   f o r   t i m e  s t e p    3201                              ( at time 1.5998399E+00 )

 nodal point  x-disp     y-disp      z-disp      x-vel       y-vel       z-vel      x-accl      y-accl      z-accl      x-coor      y-coor      z-coor
    22626  5.92435E-04-4.18134E-02-4.97954E+00 1.75294E-04-2.53323E-02-3.12075E+00-3.99434E-03 2.50531E-02-2.43998E-02 4.79648E+01-2.20716E+01 2.35896E+00



 n o d a l   p r i n t   o u t   f o r   t i m e  s t e p    3201                              ( at time 1.5998399E+00 )

 nodal point  x-rot      y-rot       z-rot       x-rot vel   y-rot vel   z-rot vel   x-rot acc   y-rot acc   z-rot acc
    22626  2.44708E-06 3.39814E-05 5.27206E-05 2.89340E-06 1.74607E-06-1.30892E-05 4.90623E-06-1.80938E-05-1.38590E-04



 n o d a l   p r i n t   o u t   f o r   t i m e  s t e p    3401                              ( at time 1.6998299E+00 )

 nodal point  x-disp     y-disp      z-disp      x-vel       y-vel       z-vel      x-accl      y-accl      z-accl      x-coor      y-coor      z-coor
    22626  6.02467E-04-4.41057E-02-5.29178E+00-9.99286E-05-2.02544E-02-3.12466E+00-2.75251E-03 5.07843E-02-3.90640E-02 4.79648E+01-2.20739E+01 2.04672E+00



 n o d a l   p r i n t   o u t   f o r   t i m e  s t e p    3401                              ( at time 1.6998299E+00 )

 nodal point  x-rot      y-rot       z-rot       x-rot vel   y-rot vel   z-rot vel   x-rot acc   y-rot acc   z-rot acc
    22626  2.64338E-06 3.39537E-05 5.15013E-05 2.62592E-07-1.45833E-06-1.55589E-05-2.63107E-05-3.20472E-05-2.46998E-05



 n o d a l   p r i n t   o u t   f o r   t i m e  s t e p    3601                              ( at time 1.7998199E+00 )

 nodal point  x-disp     y-disp      z-disp      x-vel       y-vel       z-vel      x-accl      y-accl      z-accl      x-coor      y-coor      z-coor
    22626  6.04768E-04-4.58789E-02-5.60442E+00-3.55917E-04-1.55887E-02-3.12864E+00-2.56014E-03 4.66620E-02-3.98104E-02 4.79648E+01-2.20757E+01 1.73408E+00



 n o d a l   p r i n t   o u t   f o r   t i m e  s t e p    3601                              ( at time 1.7998199E+00 )

 nodal point  x-rot      y-rot       z-rot       x-rot vel   y-rot vel   z-rot vel   x-rot acc   y-rot acc   z-rot acc
    22626  2.96110E-06 3.35750E-05 4.98581E-05 4.69661E-06-1.00856E-05-2.22010E-05 4.43447E-05-8.62815E-05-6.64272E-05



 n o d a l   p r i n t   o u t   f o r   t i m e  s t e p    3801                              ( at time 1.8998099E+00 )

 nodal point  x-disp     y-disp      z-disp      x-vel       y-vel       z-vel      x-accl      y-accl      z-accl      x-coor      y-coor      z-coor
    22626  5.11528E-04-4.73086E-02-5.91737E+00-1.22423E-03-1.31764E-02-3.13110E+00-8.68396E-03 2.41248E-02-2.46049E-02 4.79647E+01-2.20771E+01 1.42113E+00



 n o d a l   p r i n t   o u t   f o r   t i m e  s t e p    3801                              ( at time 1.8998099E+00 )

 nodal point  x-rot      y-rot       z-rot       x-rot vel   y-rot vel   z-rot vel   x-rot acc   y-rot acc   z-rot acc
    22626  3.23921E-06 3.23392E-05 4.68346E-05 6.64186E-06-1.54536E-05-3.65650E-05 1.94544E-05-5.36851E-05-1.43654E-04



 n o d a l   p r i n t   o u t   f o r   t i m e  s t e p    4001                              ( at time 1.9997999E+00 )

 nodal point  x-disp     y-disp      z-disp      x-vel       y-vel       z-vel      x-accl      y-accl      z-accl      x-coor      y-coor      z-coor
    22626  4.30028E-04-4.85065E-02-6.23058E+00-7.04168E-04-1.08339E-02-3.13337E+00 5.20110E-03 2.34272E-02-2.27784E-02 4.79646E+01-2.20783E+01 1.10793E+00



 n o d a l   p r i n t   o u t   f o r   t i m e  s t e p    4001                              ( at time 1.9997999E+00 )

 nodal point  x-rot      y-rot       z-rot       x-rot vel   y-rot vel   z-rot vel   x-rot acc   y-rot acc   z-rot acc
    22626  3.90528E-06 3.05337E-05 4.27971E-05 7.62921E-06-1.78892E-05-4.38785E-05 9.87447E-06-2.43584E-05-7.31431E-05



 n o d a l   p r i n t   o u t   f o r   t i m e  s t e p    4201                              ( at time 2.0997899E+00 )

 nodal point  x-disp     y-disp      z-disp      x-vel       y-vel       z-vel      x-accl      y-accl      z-accl      x-coor      y-coor      z-coor
    22626  3.51649E-04-4.94046E-02-6.54403E+00-9.78891E-04-7.31399E-03-3.13637E+00-2.74750E-03 3.52029E-02-2.99341E-02 4.79645E+01-2.20792E+01 7.94467E-01



 n o d a l   p r i n t   o u t   f o r   t i m e  s t e p    4201                              ( at time 2.0997899E+00 )

 nodal point  x-rot      y-rot       z-rot       x-rot vel   y-rot vel   z-rot vel   x-rot acc   y-rot acc   z-rot acc
    22626  4.60383E-06 2.82050E-05 3.75554E-05 2.91159E-06-2.52891E-05-6.05740E-05-4.71809E-05-7.40070E-05-1.66972E-04



 n o d a l   p r i n t   o u t   f o r   t i m e  s t e p    4401                              ( at time 2.1997798E+00 )

 nodal point  x-disp     y-disp      z-disp      x-vel       y-vel       z-vel      x-accl      y-accl      z-accl      x-coor      y-coor      z-coor
    22626  1.96437E-04-4.99144E-02-6.85781E+00-1.93041E-03-2.67612E-03-3.14002E+00-9.51612E-03 4.63834E-02-3.65223E-02 4.79644E+01-2.20797E+01 4.80690E-01



 n o d a l   p r i n t   o u t   f o r   t i m e  s t e p    4401                              ( at time 2.1997798E+00 )

 nodal point  x-rot      y-rot       z-rot       x-rot vel   y-rot vel   z-rot vel   x-rot acc   y-rot acc   z-rot acc
    22626  4.80925E-06 2.54601E-05 3.14632E-05 1.99669E-06-2.82887E-05-6.20343E-05-9.14990E-06-2.99988E-05-1.46044E-05



 n o d a l   p r i n t   o u t   f o r   t i m e  s t e p    4601                              ( at time 2.2997698E+00 )

 nodal point  x-disp     y-disp      z-disp      x-vel       y-vel       z-vel      x-accl      y-accl      z-accl      x-coor      y-coor      z-coor
    22626 -2.82367E-05-4.99489E-02-7.17197E+00-2.62806E-03 1.38075E-03-3.14323E+00-6.97723E-03 4.05727E-02-3.21539E-02 4.79642E+01-2.20797E+01 1.66535E-01



 n o d a l   p r i n t   o u t   f o r   t i m e  s t e p    4601                              ( at time 2.2997698E+00 )

 nodal point  x-rot      y-rot       z-rot       x-rot vel   y-rot vel   z-rot vel   x-rot acc   y-rot acc   z-rot acc
    22626  4.68963E-06 2.25721E-05 2.52750E-05-1.86868E-06-3.41702E-05-7.03522E-05-3.86575E-05-5.88206E-05-8.31867E-05



 n o d a l   p r i n t   o u t   f o r   t i m e  s t e p    4801                              ( at time 2.3997598E+00 )

 nodal point  x-disp     y-disp      z-disp      x-vel       y-vel       z-vel      x-accl      y-accl      z-accl      x-coor      y-coor      z-coor
    22626 -3.10258E-04-4.97286E-02-7.48635E+00-2.76220E-03 2.99515E-03-3.14524E+00-1.34154E-03 1.61457E-02-2.00936E-02 4.79639E+01-2.20795E+01-1.47851E-01



 n o d a l   p r i n t   o u t   f o r   t i m e  s t e p    4801                              ( at time 2.3997598E+00 )

 nodal point  x-rot      y-rot       z-rot       x-rot vel   y-rot vel   z-rot vel   x-rot acc   y-rot acc   z-rot acc
    22626  4.41032E-06 1.90579E-05 1.73656E-05-3.67346E-06-3.64836E-05-8.34215E-05-1.80496E-05-2.31362E-05-1.30707E-04



 n o d a l   p r i n t   o u t   f o r   t i m e  s t e p    5001                              ( at time 2.4997498E+00 )

 nodal point  x-disp     y-disp      z-disp      x-vel       y-vel       z-vel      x-accl      y-accl      z-accl      x-coor      y-coor      z-coor
    22626 -6.24523E-04-4.93049E-02-7.80096E+00-3.52748E-03 6.11169E-03-3.14786E+00-7.65353E-03 3.11684E-02-2.61452E-02 4.79636E+01-2.20791E+01-4.62456E-01



 n o d a l   p r i n t   o u t   f o r   t i m e  s t e p    5001                              ( at time 2.4997498E+00 )

 nodal point  x-rot      y-rot       z-rot       x-rot vel   y-rot vel   z-rot vel   x-rot acc   y-rot acc   z-rot acc
    22626  4.12336E-06 1.49064E-05 8.40124E-06-3.42507E-06-4.47528E-05-9.83230E-05 2.48416E-06-8.27004E-05-1.49029E-04



 n o d a l   p r i n t   o u t   f o r   t i m e  s t e p    5201                              ( at time 2.5997398E+00 )

 nodal point  x-disp     y-disp      z-disp      x-vel       y-vel       z-vel      x-accl      y-accl      z-accl      x-coor      y-coor      z-coor
    22626 -1.02209E-03-4.84811E-02-8.11590E+00-4.49272E-03 1.02826E-02-3.15141E+00-9.65339E-03 4.17133E-02-3.55494E-02 4.79632E+01-2.20783E+01-7.77398E-01



 n o d a l   p r i n t   o u t   f o r   t i m e  s t e p    5201                              ( at time 2.5997398E+00 )

 nodal point  x-rot      y-rot       z-rot       x-rot vel   y-rot vel   z-rot vel   x-rot acc   y-rot acc   z-rot acc
    22626  3.81494E-06 1.01515E-05-1.66776E-06-4.65108E-06-4.95552E-05-1.04887E-04-1.22613E-05-4.80289E-05-6.56479E-05



 n o d a l   p r i n t   o u t   f o r   t i m e  s t e p    5401                              ( at time 2.6997298E+00 )

 nodal point  x-disp     y-disp      z-disp      x-vel       y-vel       z-vel      x-accl      y-accl      z-accl      x-coor      y-coor      z-coor
    22626 -1.51328E-03-4.72650E-02-8.43117E+00-5.63168E-03 1.35458E-02-3.15461E+00-1.13907E-02 3.26354E-02-3.19441E-02 4.79627E+01-2.20771E+01-1.09267E+00



 n o d a l   p r i n t   o u t   f o r   t i m e  s t e p    5401                              ( at time 2.6997298E+00 )

 nodal point  x-rot      y-rot       z-rot       x-rot vel   y-rot vel   z-rot vel   x-rot acc   y-rot acc   z-rot acc
    22626  3.40930E-06 5.26085E-06-1.21216E-05-3.71825E-06-4.98155E-05-1.03306E-04 9.32923E-06-2.60305E-06 1.58135E-05



 n o d a l   p r i n t   o u t   f o r   t i m e  s t e p    5601                              ( at time 2.7997198E+00 )

 nodal point  x-disp     y-disp      z-disp      x-vel       y-vel       z-vel      x-accl      y-accl      z-accl      x-coor      y-coor      z-coor
    22626 -2.14866E-03-4.57999E-02-8.74671E+00-6.85650E-03 1.54899E-02-3.15670E+00-1.22494E-02 1.94430E-02-2.09830E-02 4.79620E+01-2.20756E+01-1.40821E+00



 n o d a l   p r i n t   o u t   f o r   t i m e  s t e p    5601                              ( at time 2.7997198E+00 )

 nodal point  x-rot      y-rot       z-rot       x-rot vel   y-rot vel   z-rot vel   x-rot acc   y-rot acc   z-rot acc
    22626  3.10203E-06-2.98370E-07-2.36064E-05-1.11437E-06-6.22632E-05-1.28469E-04 2.60414E-05-1.24490E-04-2.51660E-04



 n o d a l   p r i n t   o u t   f o r   t i m e  s t e p    5801                              ( at time 2.8997098E+00 )

 nodal point  x-disp     y-disp      z-disp      x-vel       y-vel       z-vel      x-accl      y-accl      z-accl      x-coor      y-coor      z-coor
    22626 -2.84439E-03-4.42023E-02-9.06244E+00-7.11054E-03 1.63178E-02-3.15831E+00-2.54069E-03 8.27989E-03-1.60257E-02 4.79613E+01-2.20740E+01-1.72394E+00



 n o d a l   p r i n t   o u t   f o r   t i m e  s t e p    5801                              ( at time 2.8997098E+00 )

 nodal point  x-rot      y-rot       z-rot       x-rot vel   y-rot vel   z-rot vel   x-rot acc   y-rot acc   z-rot acc
    22626  3.02656E-06-6.99168E-06-3.72383E-05-1.80365E-06-6.59259E-05-1.39350E-04-6.89352E-06-3.66304E-05-1.08821E-04



 n o d a l   p r i n t   o u t   f o r   t i m e  s t e p    6001                              ( at time 2.9996998E+00 )

 nodal point  x-disp     y-disp      z-disp      x-vel       y-vel       z-vel      x-accl      y-accl      z-accl      x-coor      y-coor      z-coor
    22626 -3.59812E-03-4.24651E-02-9.37834E+00-8.17789E-03 1.85440E-02-3.16056E+00-1.06745E-02 2.22638E-02-2.25423E-02 4.79606E+01-2.20723E+01-2.03984E+00



 n o d a l   p r i n t   o u t   f o r   t i m e  s t e p    6001                              ( at time 2.9996998E+00 )

 nodal point  x-rot      y-rot       z-rot       x-rot vel   y-rot vel   z-rot vel   x-rot acc   y-rot acc   z-rot acc
    22626  2.78388E-06-1.35864E-05-5.09952E-05-4.35761E-06-6.56877E-05-1.38089E-04-2.55421E-05 2.38158E-06 1.26118E-05



 n o d a l   p r i n t   o u t   f o r   t i m e  s t e p    6201                              ( at time 3.0996898E+00 )

 nodal point  x-disp     y-disp      z-disp      x-vel       y-vel       z-vel      x-accl      y-accl      z-accl      x-coor      y-coor      z-coor
    22626 -4.49371E-03-4.04985E-02-9.69447E+00-9.64176E-03 2.02706E-02-3.16233E+00-1.46402E-02 1.72675E-02-1.77044E-02 4.79597E+01-2.20703E+01-2.35597E+00



 n o d a l   p r i n t   o u t   f o r   t i m e  s t e p    6201                              ( at time 3.0996898E+00 )

 nodal point  x-rot      y-rot       z-rot       x-rot vel   y-rot vel   z-rot vel   x-rot acc   y-rot acc   z-rot acc
    22626  2.17564E-06-2.01463E-05-6.49326E-05-8.94727E-06-6.41580E-05-1.41640E-04-4.59012E-05 1.52995E-05-3.55114E-05



 n o d a l   p r i n t   o u t   f o r   t i m e  s t e p    6401                              ( at time 3.1996798E+00 )

 nodal point  x-disp     y-disp      z-disp      x-vel       y-vel       z-vel      x-accl      y-accl      z-accl      x-coor      y-coor      z-coor
    22626 -5.49471E-03-3.85183E-02-1.00107E+01-1.02462E-02 1.90856E-02-3.16284E+00-6.04549E-03-1.18512E-02-5.05736E-03 4.79587E+01-2.20683E+01-2.67221E+00



 n o d a l   p r i n t   o u t   f o r   t i m e  s t e p    6401                              ( at time 3.1996798E+00 )

 nodal point  x-rot      y-rot       z-rot       x-rot vel   y-rot vel   z-rot vel   x-rot acc   y-rot acc   z-rot acc
    22626  1.29453E-06-2.68372E-05-7.90366E-05-9.57580E-06-6.88302E-05-1.45833E-04-6.28597E-06-4.67273E-05-4.19292E-05



 n o d a l   p r i n t   o u t   f o r   t i m e  s t e p    6601                              ( at time 3.2996698E+00 )

 nodal point  x-disp     y-disp      z-disp      x-vel       y-vel       z-vel      x-accl      y-accl      z-accl      x-coor      y-coor      z-coor
    22626 -6.52921E-03-3.67188E-02-1.03269E+01-1.04554E-02 1.69287E-02-3.16239E+00-2.09140E-03-2.15710E-02 4.48988E-03 4.79576E+01-2.20665E+01-2.98844E+00



 n o d a l   p r i n t   o u t   f o r   t i m e  s t e p    6601                              ( at time 3.2996698E+00 )

 nodal point  x-rot      y-rot       z-rot       x-rot vel   y-rot vel   z-rot vel   x-rot acc   y-rot acc   z-rot acc
    22626  1.85832E-07-3.35807E-05-9.35720E-05-1.22637E-05-6.68850E-05-1.44579E-04-2.68814E-05 1.94547E-05 1.25353E-05



 n o d a l   p r i n t   o u t   f o r   t i m e  s t e p    6801                              ( at time 3.3996598E+00 )

 nodal point  x-disp     y-disp      z-disp      x-vel       y-vel       z-vel      x-accl      y-accl      z-accl      x-coor      y-coor      z-coor
    22626 -7.60484E-03-3.51217E-02-1.06431E+01-1.10423E-02 1.50264E-02-3.16229E+00-5.87004E-03-1.90244E-02 9.87150E-04 4.79566E+01-2.20649E+01-3.30464E+00



 n o d a l   p r i n t   o u t   f o r   t i m e  s t e p    6801                              ( at time 3.3996598E+00 )

 nodal point  x-rot      y-rot       z-rot       x-rot vel   y-rot vel   z-rot vel   x-rot acc   y-rot acc   z-rot acc
    22626 -8.21712E-07-3.99804E-05-1.07731E-04-1.23087E-05-6.05681E-05-1.38122E-04-4.50608E-07 6.31746E-05 6.45799E-05



 n o d a l   p r i n t   o u t   f o r   t i m e  s t e p    7001                              ( at time 3.4996498E+00 )

 nodal point  x-disp     y-disp      z-disp      x-vel       y-vel       z-vel      x-accl      y-accl      z-accl      x-coor      y-coor      z-coor
    22626 -8.74229E-03-3.37033E-02-1.09594E+01-1.17119E-02 1.32992E-02-3.16245E+00-6.69703E-03-1.72743E-02-1.65241E-03 4.79554E+01-2.20635E+01-3.62085E+00



 n o d a l   p r i n t   o u t   f o r   t i m e  s t e p    7001                              ( at time 3.4996498E+00 )

 nodal point  x-rot      y-rot       z-rot       x-rot vel   y-rot vel   z-rot vel   x-rot acc   y-rot acc   z-rot acc
    22626 -1.91574E-06-4.56935E-05-1.20667E-04-1.11822E-05-5.37095E-05-1.23750E-04 1.12664E-05 6.85929E-05 1.43736E-04



 n o d a l   p r i n t   o u t   f o r   t i m e  s t e p    7201                              ( at time 3.5996397E+00 )

 nodal point  x-disp     y-disp      z-disp      x-vel       y-vel       z-vel      x-accl      y-accl      z-accl      x-coor      y-coor      z-coor
    22626 -9.92787E-03-3.24973E-02-1.12756E+01-1.16942E-02 1.05012E-02-3.16207E+00 1.77174E-04-2.79829E-02 3.81985E-03 4.79543E+01-2.20623E+01-3.93705E+00



 n o d a l   p r i n t   o u t   f o r   t i m e  s t e p    7201                              ( at time 3.5996397E+00 )

 nodal point  x-rot      y-rot       z-rot       x-rot vel   y-rot vel   z-rot vel   x-rot acc   y-rot acc   z-rot acc
    22626 -3.11848E-06-5.07065E-05-1.32295E-04-9.58177E-06-4.63423E-05-1.05800E-04 1.60059E-05 7.36792E-05 1.79515E-04



 n o d a l   p r i n t   o u t   f o r   t i m e  s t e p    7401                              ( at time 3.6996297E+00 )

 nodal point  x-disp     y-disp      z-disp      x-vel       y-vel       z-vel      x-accl      y-accl      z-accl      x-coor      y-coor      z-coor
    22626 -1.10766E-02-3.16176E-02-1.15917E+01-1.13239E-02 7.05258E-03-3.16110E+00 3.70379E-03-3.44891E-02 9.76420E-03 4.79531E+01-2.20614E+01-4.25318E+00



 n o d a l   p r i n t   o u t   f o r   t i m e  s t e p    7401                              ( at time 3.6996297E+00 )

 nodal point  x-rot      y-rot       z-rot       x-rot vel   y-rot vel   z-rot vel   x-rot acc   y-rot acc   z-rot acc
    22626 -4.08282E-06-5.50007E-05-1.42631E-04-9.18363E-06-3.94961E-05-9.91428E-05 3.98177E-06 6.84694E-05 6.65785E-05



 n o d a l   p r i n t   o u t   f o r   t i m e  s t e p    7601                              ( at time 3.7996197E+00 )

 nodal point  x-disp     y-disp      z-disp      x-vel       y-vel       z-vel      x-accl      y-accl      z-accl      x-coor      y-coor      z-coor
    22626 -1.21931E-02-3.10510E-02-1.19077E+01-1.09566E-02 4.32293E-03-3.16039E+00 3.67358E-03-2.72993E-02 7.10798E-03 4.79520E+01-2.20608E+01-4.56921E+00



 n o d a l   p r i n t   o u t   f o r   t i m e  s t e p    7601                              ( at time 3.7996197E+00 )

 nodal point  x-rot      y-rot       z-rot       x-rot vel   y-rot vel   z-rot vel   x-rot acc   y-rot acc   z-rot acc
    22626 -4.99788E-06-5.83617E-05-1.51653E-04-8.68791E-06-2.42964E-05-7.43341E-05 4.95775E-06 1.52012E-04 2.48113E-04



 n o d a l   p r i n t   o u t   f o r   t i m e  s t e p    7801                              ( at time 3.8996097E+00 )

 nodal point  x-disp     y-disp      z-disp      x-vel       y-vel       z-vel      x-accl      y-accl      z-accl      x-coor      y-coor      z-coor
    22626 -1.32521E-02-3.07243E-02-1.22237E+01-1.01983E-02 2.51172E-03-3.16032E+00 7.58383E-03-1.81139E-02 6.22334E-04 4.79509E+01-2.20605E+01-4.88521E+00



 n o d a l   p r i n t   o u t   f o r   t i m e  s t e p    7801                              ( at time 3.8996097E+00 )

 nodal point  x-rot      y-rot       z-rot       x-rot vel   y-rot vel   z-rot vel   x-rot acc   y-rot acc   z-rot acc
    22626 -5.97562E-06-6.01980E-05-1.57795E-04-1.31597E-05-1.05746E-05-4.56750E-05-4.47220E-05 1.37232E-04 2.86619E-04



 n o d a l   p r i n t   o u t   f o r   t i m e  s t e p    8001                              ( at time 3.9995997E+00 )

 nodal point  x-disp     y-disp      z-disp      x-vel       y-vel       z-vel      x-accl      y-accl      z-accl      x-coor      y-coor      z-coor
    22626 -1.42394E-02-3.05243E-02-1.25397E+01-9.56397E-03 1.37555E-03-3.16065E+00 6.34358E-03-1.13628E-02-3.23567E-03 4.79499E+01-2.20603E+01-5.20124E+00



 n o d a l   p r i n t   o u t   f o r   t i m e  s t e p    8001                              ( at time 3.9995997E+00 )

 nodal point  x-rot      y-rot       z-rot       x-rot vel   y-rot vel   z-rot vel   x-rot acc   y-rot acc   z-rot acc
    22626 -7.26327E-06-6.04865E-05-1.61188E-04-1.47092E-05 5.62285E-06-2.40562E-05-1.54973E-05 1.61991E-04 2.16210E-04



 n o d a l   p r i n t   o u t   f o r   t i m e  s t e p    8201                              ( at time 4.0995897E+00 )

 nodal point  x-disp     y-disp      z-disp      x-vel       y-vel       z-vel      x-accl      y-accl      z-accl      x-coor      y-coor      z-coor
    22626 -1.51182E-02-3.05091E-02-1.28558E+01-7.86591E-03-1.27755E-03-3.16022E+00 1.69822E-02-2.65336E-02 4.31342E-03 4.79491E+01-2.20603E+01-5.51725E+00



 n o d a l   p r i n t   o u t   f o r   t i m e  s t e p    8201                              ( at time 4.0995897E+00 )

 nodal point  x-rot      y-rot       z-rot       x-rot vel   y-rot vel   z-rot vel   x-rot acc   y-rot acc   z-rot acc
    22626 -8.65664E-06-5.93087E-05-1.62329E-04-1.33951E-05 2.09827E-05 5.05496E-06 1.31428E-05 1.53614E-04 2.91140E-04



 n o d a l   p r i n t   o u t   f o r   t i m e  s t e p    8401                              ( at time 4.1995797E+00 )

 nodal point  x-disp     y-disp      z-disp      x-vel       y-vel       z-vel      x-accl      y-accl      z-accl      x-coor      y-coor      z-coor
    22626 -1.58230E-02-3.07508E-02-1.31717E+01-6.16486E-03-3.45090E-03-3.15972E+00 1.70123E-02-2.17357E-02 4.94769E-03 4.79484E+01-2.20605E+01-5.83321E+00



 n o d a l   p r i n t   o u t   f o r   t i m e  s t e p    8401                              ( at time 4.1995797E+00 )

 nodal point  x-rot      y-rot       z-rot       x-rot vel   y-rot vel   z-rot vel   x-rot acc   y-rot acc   z-rot acc
    22626 -9.98739E-06-5.63715E-05-1.60095E-04-1.42907E-05 3.90213E-05 3.87563E-05-8.95735E-06 1.80404E-04 3.37047E-04



 n o d a l   p r i n t   o u t   f o r   t i m e  s t e p    8601                              ( at time 4.2995697E+00 )

 nodal point  x-disp     y-disp      z-disp      x-vel       y-vel       z-vel      x-accl      y-accl      z-accl      x-coor      y-coor      z-coor
    22626 -1.63733E-02-3.12060E-02-1.34876E+01-4.73356E-03-5.43289E-03-3.15972E+00 1.43144E-02-1.98219E-02 1.43066E-05 4.79478E+01-2.20610E+01-6.14915E+00



 n o d a l   p r i n t   o u t   f o r   t i m e  s t e p    8601                              ( at time 4.2995697E+00 )

 nodal point  x-rot      y-rot       z-rot       x-rot vel   y-rot vel   z-rot vel   x-rot acc   y-rot acc   z-rot acc
    22626 -1.13556E-05-5.14945E-05-1.54835E-04-1.26870E-05 5.66079E-05 6.60864E-05 1.60392E-05 1.75883E-04 2.73329E-04



 n o d a l   p r i n t   o u t   f o r   t i m e  s t e p    8801                              ( at time 4.3995597E+00 )

 nodal point  x-disp     y-disp      z-disp      x-vel       y-vel       z-vel      x-accl      y-accl      z-accl      x-coor      y-coor      z-coor
    22626 -1.67624E-02-3.17790E-02-1.38036E+01-3.03488E-03-6.07802E-03-3.16042E+00 1.69885E-02-6.45186E-03-6.98637E-03 4.79474E+01-2.20616E+01-6.46511E+00



 n o d a l   p r i n t   o u t   f o r   t i m e  s t e p    8801                              ( at time 4.3995597E+00 )

 nodal point  x-rot      y-rot       z-rot       x-rot vel   y-rot vel   z-rot vel   x-rot acc   y-rot acc   z-rot acc
    22626 -1.25506E-05-4.48667E-05-1.46207E-04-1.18070E-05 7.41488E-05 1.03235E-04 8.80116E-06 1.75427E-04 3.71527E-04



 n o d a l   p r i n t   o u t   f o r   t i m e  s t e p    9001                              ( at time 4.4995497E+00 )

 nodal point  x-disp     y-disp      z-disp      x-vel       y-vel       z-vel      x-accl      y-accl      z-accl      x-coor      y-coor      z-coor
    22626 -1.69854E-02-3.24770E-02-1.41196E+01-1.19739E-03-8.25570E-03-3.16007E+00 1.83767E-02-2.17790E-02 3.50509E-03 4.79472E+01-2.20623E+01-6.78111E+00



 n o d a l   p r i n t   o u t   f o r   t i m e  s t e p    9001                              ( at time 4.4995497E+00 )

 nodal point  x-rot      y-rot       z-rot       x-rot vel   y-rot vel   z-rot vel   x-rot acc   y-rot acc   z-rot acc
    22626 -1.36241E-05-3.61405E-05-1.33920E-04-8.02886E-06 9.65600E-05 1.37197E-04 3.77845E-05 2.24133E-04 3.39654E-04



 n o d a l   p r i n t   o u t   f o r   t i m e  s t e p    9201                              ( at time 4.5995397E+00 )

 nodal point  x-disp     y-disp      z-disp      x-vel       y-vel       z-vel      x-accl      y-accl      z-accl      x-coor      y-coor      z-coor
    22626 -1.70019E-02-3.34464E-02-1.44356E+01 8.00963E-04-1.08561E-02-3.15951E+00 1.99855E-02-2.60069E-02 5.57956E-03 4.79472E+01-2.20632E+01-7.09706E+00



 n o d a l   p r i n t   o u t   f o r   t i m e  s t e p    9201                              ( at time 4.5995397E+00 )

 nodal point  x-rot      y-rot       z-rot       x-rot vel   y-rot vel   z-rot vel   x-rot acc   y-rot acc   z-rot acc
    22626 -1.44458E-05-2.59443E-05-1.19053E-04-6.76091E-06 1.09221E-04 1.59244E-04 1.26808E-05 1.26623E-04 2.20492E-04



 n o d a l   p r i n t   o u t   f o r   t i m e  s t e p    9401                              ( at time 4.6995297E+00 )

 nodal point  x-disp     y-disp      z-disp      x-vel       y-vel       z-vel      x-accl      y-accl      z-accl      x-coor      y-coor      z-coor
    22626 -1.68147E-02-3.45938E-02-1.47515E+01 2.83980E-03-1.20792E-02-3.15970E+00 2.03904E-02-1.22324E-02-1.85985E-03 4.79474E+01-2.20644E+01-7.41299E+00



 n o d a l   p r i n t   o u t   f o r   t i m e  s t e p    9401                              ( at time 4.6995297E+00 )

 nodal point  x-rot      y-rot       z-rot       x-rot vel   y-rot vel   z-rot vel   x-rot acc   y-rot acc   z-rot acc
    22626 -1.50683E-05-1.41208E-05-1.01276E-04-6.65204E-06 1.28518E-04 1.95647E-04 1.08889E-06 1.92990E-04 3.64067E-04



 n o d a l   p r i n t   o u t   f o r   t i m e  s t e p    9601                              ( at time 4.7995197E+00 )

 nodal point  x-disp     y-disp      z-disp      x-vel       y-vel       z-vel      x-accl      y-accl      z-accl      x-coor      y-coor      z-coor
    22626 -1.64334E-02-3.58538E-02-1.50674E+01 4.74538E-03-1.29442E-02-3.16019E+00 1.90577E-02-8.65077E-03-4.91669E-03 4.79477E+01-2.20656E+01-7.72895E+00



 n o d a l   p r i n t   o u t   f o r   t i m e  s t e p    9601                              ( at time 4.7995197E+00 )

 nodal point  x-rot      y-rot       z-rot       x-rot vel   y-rot vel   z-rot vel   x-rot acc   y-rot acc   z-rot acc
    22626 -1.57107E-05-5.59888E-08-7.99951E-05-9.11738E-06 1.50750E-04 2.30096E-04-2.46559E-05 2.22345E-04 3.44523E-04



 n o d a l   p r i n t   o u t   f o r   t i m e  s t e p    9801                              ( at time 4.8995097E+00 )

 nodal point  x-disp     y-disp      z-disp      x-vel       y-vel       z-vel      x-accl      y-accl      z-accl      x-coor      y-coor      z-coor
    22626 -1.58605E-02-3.71878E-02-1.53835E+01 6.60685E-03-1.38137E-02-3.16038E+00 1.86166E-02-8.69570E-03-1.97431E-03 4.79483E+01-2.20670E+01-8.04496E+00



 n o d a l   p r i n t   o u t   f o r   t i m e  s t e p    9801                              ( at time 4.8995097E+00 )

 nodal point  x-rot      y-rot       z-rot       x-rot vel   y-rot vel   z-rot vel   x-rot acc   y-rot acc   z-rot acc
    22626 -1.65470E-05 1.57218E-05-5.56961E-05-8.73555E-06 1.63891E-04 2.52144E-04 3.81871E-06 1.31417E-04 2.20500E-04



 n o d a l   p r i n t   o u t   f o r   t i m e  s t e p   10001                              ( at time 4.9994997E+00 )

 nodal point  x-disp     y-disp      z-disp      x-vel       y-vel       z-vel      x-accl      y-accl      z-accl      x-coor      y-coor      z-coor
    22626 -1.50844E-02-3.86516E-02-1.56995E+01 8.81212E-03-1.54205E-02-3.16056E+00 2.20548E-02-1.60691E-02-1.74539E-03 4.79491E+01-2.20684E+01-8.36097E+00



 n o d a l   p r i n t   o u t   f o r   t i m e  s t e p   10001                              ( at time 4.9994997E+00 )

 nodal point  x-rot      y-rot       z-rot       x-rot vel   y-rot vel   z-rot vel   x-rot acc   y-rot acc   z-rot acc
    22626 -1.73325E-05 3.26261E-05-2.93393E-05-6.47063E-06 1.74688E-04 2.74095E-04 2.26513E-05 1.07985E-04 2.19529E-04



 n o d a l   p r i n t   o u t   f o r   t i m e  s t e p   10202                              ( at time 5.0999896E+00 )

 nodal point  x-disp     y-disp      z-disp      x-vel       y-vel       z-vel      x-accl      y-accl      z-accl      x-coor      y-coor      z-coor
    22626 -1.40913E-02-4.02445E-02-1.60171E+01 1.08720E-02-1.61481E-02-3.16101E+00 2.04980E-02-7.24064E-03-4.48178E-03 4.79501E+01-2.20700E+01-8.67858E+00



 n o d a l   p r i n t   o u t   f o r   t i m e  s t e p   10202                              ( at time 5.0999896E+00 )

 nodal point  x-rot      y-rot       z-rot       x-rot vel   y-rot vel   z-rot vel   x-rot acc   y-rot acc   z-rot acc
    22626 -1.80746E-05 5.12205E-05-4.52582E-07-8.17577E-06 1.90299E-04 2.98024E-04-1.69683E-05 1.55347E-04 2.38127E-04



 n o d a l   p r i n t   o u t   f o r   t i m e  s t e p   10402                              ( at time 5.1999796E+00 )

 nodal point  x-disp     y-disp      z-disp      x-vel       y-vel       z-vel      x-accl      y-accl      z-accl      x-coor      y-coor      z-coor
    22626 -1.29308E-02-4.18409E-02-1.63332E+01 1.22542E-02-1.54958E-02-3.16228E+00 1.38234E-02 6.52356E-03-1.26708E-02 4.79512E+01-2.20716E+01-8.99470E+00



 n o d a l   p r i n t   o u t   f o r   t i m e  s t e p   10402                              ( at time 5.1999796E+00 )

 nodal point  x-rot      y-rot       z-rot       x-rot vel   y-rot vel   z-rot vel   x-rot acc   y-rot acc   z-rot acc
    22626 -1.86982E-05 7.09253E-05 3.04209E-05-5.34142E-06 1.99978E-04 3.16405E-04 2.83462E-05 9.67998E-05 1.83828E-04



 n o d a l   p r i n t   o u t   f o r   t i m e  s t e p   10602                              ( at time 5.2999696E+00 )

 nodal point  x-disp     y-disp      z-disp      x-vel       y-vel       z-vel      x-accl      y-accl      z-accl      x-coor      y-coor      z-coor
    22626 -1.16446E-02-4.33248E-02-1.66495E+01 1.33330E-02-1.43571E-02-3.16402E+00 1.07900E-02 1.13881E-02-1.74206E-02 4.79525E+01-2.20731E+01-9.31099E+00



 n o d a l   p r i n t   o u t   f o r   t i m e  s t e p   10602                              ( at time 5.2999696E+00 )

 nodal point  x-rot      y-rot       z-rot       x-rot vel   y-rot vel   z-rot vel   x-rot acc   y-rot acc   z-rot acc
    22626 -1.91327E-05 9.13240E-05 6.25433E-05-5.78199E-06 2.05996E-04 3.25447E-04-4.40617E-06 6.01828E-05 9.04330E-05



 n o d a l   p r i n t   o u t   f o r   t i m e  s t e p   10802                              ( at time 5.3999596E+00 )

 nodal point  x-disp     y-disp      z-disp      x-vel       y-vel       z-vel      x-accl      y-accl      z-accl      x-coor      y-coor      z-coor
    22626 -1.02560E-02-4.47087E-02-1.69659E+01 1.45671E-02-1.33320E-02-3.16567E+00 1.23420E-02 1.02523E-02-1.65026E-02 4.79539E+01-2.20745E+01-9.62744E+00



 n o d a l   p r i n t   o u t   f o r   t i m e  s t e p   10802                              ( at time 5.3999596E+00 )

 nodal point  x-rot      y-rot       z-rot       x-rot vel   y-rot vel   z-rot vel   x-rot acc   y-rot acc   z-rot acc
    22626 -1.94153E-05 1.12017E-04 9.53458E-05 9.88003E-07 2.06421E-04 3.26436E-04 6.77068E-05 4.24901E-06 9.88699E-06



 n o d a l   p r i n t   o u t   f o r   t i m e  s t e p   11002                              ( at time 5.4999496E+00 )

 nodal point  x-disp     y-disp      z-disp      x-vel       y-vel       z-vel      x-accl      y-accl      z-accl      x-coor      y-coor      z-coor
    22626 -8.73269E-03-4.59744E-02-1.72826E+01 1.59009E-02-1.19397E-02-3.16720E+00 1.33387E-02 1.39238E-02-1.53605E-02 4.79554E+01-2.20758E+01-9.94406E+00



 n o d a l   p r i n t   o u t   f o r   t i m e  s t e p   11002                              ( at time 5.4999496E+00 )

 nodal point  x-rot      y-rot       z-rot       x-rot vel   y-rot vel   z-rot vel   x-rot acc   y-rot acc   z-rot acc
    22626 -1.93366E-05 1.32874E-04 1.28476E-04-3.13247E-07 2.11447E-04 3.34901E-04-1.30138E-05 5.02732E-05 8.46544E-05



 n o d a l   p r i n t   o u t   f o r   t i m e  s t e p   11202                              ( at time 5.5999396E+00 )

 nodal point  x-disp     y-disp      z-disp      x-vel       y-vel       z-vel      x-accl      y-accl      z-accl      x-coor      y-coor      z-coor
    22626 -7.11914E-03-4.70444E-02-1.75993E+01 1.62356E-02-9.34026E-03-3.16834E+00 3.34792E-03 2.59973E-02-1.13141E-02 4.79571E+01-2.20768E+01-1.02608E+01



 n o d a l   p r i n t   o u t   f o r   t i m e  s t e p   11202                              ( at time 5.5999396E+00 )

 nodal point  x-rot      y-rot       z-rot       x-rot vel   y-rot vel   z-rot vel   x-rot acc   y-rot acc   z-rot acc
    22626 -1.94361E-05 1.54701E-04 1.61884E-04-1.52554E-06 2.27510E-04 3.32665E-04-1.21241E-05 1.60644E-04-2.23543E-05



 n o d a l   p r i n t   o u t   f o r   t i m e  s t e p   11402                              ( at time 5.6999296E+00 )

 nodal point  x-disp     y-disp      z-disp      x-vel       y-vel       z-vel      x-accl      y-accl      z-accl      x-coor      y-coor      z-coor
    22626 -5.49214E-03-4.78486E-02-1.79161E+01 1.60901E-02-6.61602E-03-3.16843E+00-1.45546E-03 2.72450E-02-9.51382E-04 4.79587E+01-2.20776E+01-1.05776E+01



 n o d a l   p r i n t   o u t   f o r   t i m e  s t e p   11402                              ( at time 5.6999296E+00 )

 nodal point  x-rot      y-rot       z-rot       x-rot vel   y-rot vel   z-rot vel   x-rot acc   y-rot acc   z-rot acc
    22626 -1.97691E-05 1.79242E-04 1.95220E-04-6.08331E-06 2.64187E-04 3.27555E-04-4.55821E-05 3.66801E-04-5.11092E-05



 n o d a l   p r i n t   o u t   f o r   t i m e  s t e p   11602                              ( at time 5.7999195E+00 )

 nodal point  x-disp     y-disp      z-disp      x-vel       y-vel       z-vel      x-accl      y-accl      z-accl      x-coor      y-coor      z-coor
    22626 -3.86159E-03-4.83921E-02-1.82329E+01 1.65927E-02-4.46410E-03-3.16664E+00 5.02665E-03 2.15213E-02 1.79190E-02 4.79603E+01-2.20782E+01-1.08944E+01



 n o d a l   p r i n t   o u t   f o r   t i m e  s t e p   11602                              ( at time 5.7999195E+00 )

 nodal point  x-rot      y-rot       z-rot       x-rot vel   y-rot vel   z-rot vel   x-rot acc   y-rot acc   z-rot acc
    22626 -2.03486E-05 2.08087E-04 2.27709E-04-5.04554E-06 3.16955E-04 3.19051E-04 1.03787E-05 5.27732E-04-8.50491E-05



 n o d a l   p r i n t   o u t   f o r   t i m e  s t e p   11802                              ( at time 5.8999095E+00 )

 nodal point  x-disp     y-disp      z-disp      x-vel       y-vel       z-vel      x-accl      y-accl      z-accl      x-coor      y-coor      z-coor
    22626 -2.18407E-03-4.87979E-02-1.85493E+01 1.72116E-02-3.65177E-03-3.16205E+00 6.18977E-03 8.12417E-03 4.59360E-02 4.79620E+01-2.20786E+01-1.12108E+01



 n o d a l   p r i n t   o u t   f o r   t i m e  s t e p   11802                              ( at time 5.8999095E+00 )

 nodal point  x-rot      y-rot       z-rot       x-rot vel   y-rot vel   z-rot vel   x-rot acc   y-rot acc   z-rot acc
    22626 -2.11535E-05 2.43396E-04 2.59247E-04-1.52891E-05 3.91967E-04 3.13674E-04-1.02446E-04 7.50203E-04-5.37736E-05



 n o d a l   p r i n t   o u t   f o r   t i m e  s t e p   12002                              ( at time 5.9998995E+00 )

 nodal point  x-disp     y-disp      z-disp      x-vel       y-vel       z-vel      x-accl      y-accl      z-accl      x-coor      y-coor      z-coor
    22626 -4.77580E-04-4.91119E-02-1.88652E+01 1.64819E-02-2.24793E-03-3.15520E+00-7.29746E-03 1.40398E-02 6.84736E-02 4.79637E+01-2.20789E+01-1.15266E+01



 n o d a l   p r i n t   o u t   f o r   t i m e  s t e p   12002                              ( at time 5.9998995E+00 )

 nodal point  x-rot      y-rot       z-rot       x-rot vel   y-rot vel   z-rot vel   x-rot acc   y-rot acc   z-rot acc
    22626 -2.28678E-05 2.87927E-04 2.89693E-04-1.13592E-05 5.05116E-04 2.93396E-04 3.93035E-05 1.13160E-03-2.02806E-04



 n o d a l   p r i n t   o u t   f o r   t i m e  s t e p   12202                              ( at time 6.0998895E+00 )

 nodal point  x-disp     y-disp      z-disp      x-vel       y-vel       z-vel      x-accl      y-accl      z-accl      x-coor      y-coor      z-coor
    22626  1.10618E-03-4.92154E-02-1.91802E+01 1.50591E-02 6.20692E-05-3.14571E+00-1.42302E-02 2.31022E-02 9.49212E-02 4.79653E+01-2.20790E+01-1.18417E+01



 n o d a l   p r i n t   o u t   f o r   t i m e  s t e p   12202                              ( at time 6.0998895E+00 )

 nodal point  x-rot      y-rot       z-rot       x-rot vel   y-rot vel   z-rot vel   x-rot acc   y-rot acc   z-rot acc
    22626 -2.31636E-05 3.45864E-04 3.17351E-04 2.70811E-06 6.61792E-04 2.61433E-04 1.40686E-04 1.56690E-03-3.19658E-04



 n o d a l   p r i n t   o u t   f o r   t i m e  s t e p   12402                              ( at time 6.1998795E+00 )

 nodal point  x-disp     y-disp      z-disp      x-vel       y-vel       z-vel      x-accl      y-accl      z-accl      x-coor      y-coor      z-coor
    22626  2.55205E-03-4.91438E-02-1.94941E+01 1.39292E-02 1.32549E-03-3.13188E+00-1.12997E-02 1.26355E-02 1.38259E-01 4.79667E+01-2.20789E+01-1.21556E+01



 n o d a l   p r i n t   o u t   f o r   t i m e  s t e p   12402                              ( at time 6.1998795E+00 )

 nodal point  x-rot      y-rot       z-rot       x-rot vel   y-rot vel   z-rot vel   x-rot acc   y-rot acc   z-rot acc
    22626 -2.23284E-05 4.22210E-04 3.41490E-04 1.89306E-05 8.74547E-04 2.23680E-04 1.62241E-04 2.12777E-03-3.77561E-04



 n o d a l   p r i n t   o u t   f o r   t i m e  s t e p   12602                              ( at time 6.2998695E+00 )

 nodal point  x-disp     y-disp      z-disp      x-vel       y-vel       z-vel      x-accl      y-accl      z-accl      x-coor      y-coor      z-coor
    22626  3.83876E-03-4.89317E-02-1.98064E+01 1.18912E-02 2.88870E-03-3.11454E+00-2.03819E-02 1.56337E-02 1.73455E-01 4.79680E+01-2.20787E+01-1.24679E+01



 n o d a l   p r i n t   o u t   f o r   t i m e  s t e p   12602                              ( at time 6.2998695E+00 )

 nodal point  x-rot      y-rot       z-rot       x-rot vel   y-rot vel   z-rot vel   x-rot acc   y-rot acc   z-rot acc
    22626 -1.92409E-05 5.22279E-04 3.61614E-04 4.45838E-05 1.13137E-03 1.79394E-04 2.56558E-04 2.56850E-03-4.42904E-04



 n o d a l   p r i n t   o u t   f o r   t i m e  s t e p   12802                              ( at time 6.3998595E+00 )

 nodal point  x-disp     y-disp      z-disp      x-vel       y-vel       z-vel      x-accl      y-accl      z-accl      x-coor      y-coor      z-coor
    22626  4.88777E-03-4.85788E-02-2.01168E+01 8.85386E-03 4.62666E-03-3.09363E+00-3.03767E-02 1.73813E-02 2.09162E-01 4.79691E+01-2.20784E+01-1.27783E+01



 n o d a l   p r i n t   o u t   f o r   t i m e  s t e p   12802                              ( at time 6.3998595E+00 )

 nodal point  x-rot      y-rot       z-rot       x-rot vel   y-rot vel   z-rot vel   x-rot acc   y-rot acc   z-rot acc
    22626 -1.30108E-05 6.50753E-04 3.77151E-04 8.31139E-05 1.45092E-03 1.24261E-04 3.85340E-04 3.19584E-03-5.51393E-04



 n o d a l   p r i n t   o u t   f o r   t i m e  s t e p   13002                              ( at time 6.4998495E+00 )

 nodal point  x-disp     y-disp      z-disp      x-vel       y-vel       z-vel      x-accl      y-accl      z-accl      x-coor      y-coor      z-coor
    22626  5.58965E-03-4.79605E-02-2.04250E+01 5.02939E-03 7.68361E-03-3.07002E+00-3.82486E-02 3.05727E-02 2.36063E-01 4.79698E+01-2.20778E+01-1.30865E+01



 n o d a l   p r i n t   o u t   f o r   t i m e  s t e p   13002                              ( at time 6.4998495E+00 )

 nodal point  x-rot      y-rot       z-rot       x-rot vel   y-rot vel   z-rot vel   x-rot acc   y-rot acc   z-rot acc
    22626 -1.66752E-06 8.14149E-04 3.86710E-04 1.39261E-04 1.82199E-03 6.88586E-05 5.61525E-04 3.71103E-03-5.54078E-04



 n o d a l   p r i n t   o u t   f o r   t i m e  s t e p   13202                              ( at time 6.5998395E+00 )

 nodal point  x-disp     y-disp      z-disp      x-vel       y-vel       z-vel      x-accl      y-accl      z-accl      x-coor      y-coor      z-coor
    22626  5.87836E-03-4.70490E-02-2.07306E+01 8.24424E-04 1.06712E-02-3.04301E+00-4.20537E-02 2.98783E-02 2.70126E-01 4.79701E+01-2.20768E+01-1.33921E+01



 n o d a l   p r i n t   o u t   f o r   t i m e  s t e p   13202                              ( at time 6.5998395E+00 )

 nodal point  x-rot      y-rot       z-rot       x-rot vel   y-rot vel   z-rot vel   x-rot acc   y-rot acc   z-rot acc
    22626  1.48329E-05 1.01615E-03 3.90506E-04 1.94433E-04 2.22652E-03 3.58571E-06 5.51775E-04 4.04575E-03-6.52792E-04



 n o d a l   p r i n t   o u t   f o r   t i m e  s t e p   13402                              ( at time 6.6998295E+00 )

 nodal point  x-disp     y-disp      z-disp      x-vel       y-vel       z-vel      x-accl      y-accl      z-accl      x-coor      y-coor      z-coor
    22626  5.68004E-03-4.58385E-02-2.10334E+01-4.50667E-03 1.32237E-02-3.01383E+00-5.33163E-02 2.55284E-02 2.91871E-01 4.79699E+01-2.20756E+01-1.36949E+01



 n o d a l   p r i n t   o u t   f o r   t i m e  s t e p   13402                              ( at time 6.6998295E+00 )

 nodal point  x-rot      y-rot       z-rot       x-rot vel   y-rot vel   z-rot vel   x-rot acc   y-rot acc   z-rot acc
    22626  3.83315E-05 1.26051E-03 3.87606E-04 2.72988E-04 2.65914E-03-6.06814E-05 7.85632E-04 4.32664E-03-6.42736E-04



 n o d a l   p r i n t   o u t   f o r   t i m e  s t e p   13602                              ( at time 6.7998195E+00 )

 nodal point  x-disp     y-disp      z-disp      x-vel       y-vel       z-vel      x-accl      y-accl      z-accl      x-coor      y-coor      z-coor
    22626  4.92638E-03-4.44343E-02-2.13331E+01-1.05070E-02 1.48771E-02-2.98139E+00-6.00090E-02 1.65355E-02 3.24394E-01 4.79691E+01-2.20742E+01-1.39946E+01



 n o d a l   p r i n t   o u t   f o r   t i m e  s t e p   13602                              ( at time 6.7998195E+00 )

 nodal point  x-rot      y-rot       z-rot       x-rot vel   y-rot vel   z-rot vel   x-rot acc   y-rot acc   z-rot acc
    22626  6.92360E-05 1.54957E-03 3.79102E-04 3.51556E-04 3.11573E-03-1.07929E-04 7.85762E-04 4.56631E-03-4.72526E-04



 n o d a l   p r i n t   o u t   f o r   t i m e  s t e p   13802                              ( at time 6.8998095E+00 )

 nodal point  x-disp     y-disp      z-disp      x-vel       y-vel       z-vel      x-accl      y-accl      z-accl      x-coor      y-coor      z-coor
    22626  3.62538E-03-4.28064E-02-2.16295E+01-1.58550E-02 1.79053E-02-2.94713E+00-5.34863E-02 3.02849E-02 3.42690E-01 4.79678E+01-2.20726E+01-1.42910E+01



 n o d a l   p r i n t   o u t   f o r   t i m e  s t e p   13802                              ( at time 6.8998095E+00 )

 nodal point  x-rot      y-rot       z-rot       x-rot vel   y-rot vel   z-rot vel   x-rot acc   y-rot acc   z-rot acc
    22626  1.08327E-04 1.88386E-03 3.65364E-04 4.36068E-04 3.56969E-03-1.64700E-04 8.45199E-04 4.54008E-03-5.67762E-04



 n o d a l   p r i n t   o u t   f o r   t i m e  s t e p   14002                              ( at time 6.9997995E+00 )

 nodal point  x-disp     y-disp      z-disp      x-vel       y-vel       z-vel      x-accl      y-accl      z-accl      x-coor      y-coor      z-coor
    22626  1.71255E-03-4.09201E-02-2.19225E+01-2.21322E-02 2.04875E-02-2.91175E+00-6.27782E-02 2.58241E-02 3.53816E-01 4.79659E+01-2.20707E+01-1.45840E+01



 n o d a l   p r i n t   o u t   f o r   t i m e  s t e p   14002                              ( at time 6.9997995E+00 )

 nodal point  x-rot      y-rot       z-rot       x-rot vel   y-rot vel   z-rot vel   x-rot acc   y-rot acc   z-rot acc
    22626  1.57408E-04 2.26256E-03 3.47034E-04 5.39685E-04 3.99715E-03-1.98232E-04 1.03627E-03 4.27498E-03-3.35353E-04



 n o d a l   p r i n t   o u t   f o r   t i m e  s t e p   14202                              ( at time 7.0997895E+00 )

 nodal point  x-disp     y-disp      z-disp      x-vel       y-vel       z-vel      x-accl      y-accl      z-accl      x-coor      y-coor      z-coor
    22626 -8.10934E-04-3.88701E-02-2.22117E+01-2.79193E-02 2.00358E-02-2.87253E+00-5.78765E-02-4.51739E-03 3.92232E-01 4.79634E+01-2.20687E+01-1.48732E+01



 n o d a l   p r i n t   o u t   f o r   t i m e  s t e p   14202                              ( at time 7.0997895E+00 )

 nodal point  x-rot      y-rot       z-rot       x-rot vel   y-rot vel   z-rot vel   x-rot acc   y-rot acc   z-rot acc
    22626  2.15738E-04 2.68557E-03 3.25214E-04 6.37236E-04 4.44588E-03-2.17852E-04 9.75605E-04 4.48774E-03-1.96227E-04



 n o d a l   p r i n t   o u t   f o r   t i m e  s t e p   14402                              ( at time 7.1997794E+00 )

 nodal point  x-disp     y-disp      z-disp      x-vel       y-vel       z-vel      x-accl      y-accl      z-accl      x-coor      y-coor      z-coor
    22626 -3.81513E-03-3.68558E-02-2.24969E+01-3.18917E-02 2.07101E-02-2.83056E+00-3.97277E-02 6.74426E-03 4.19769E-01 4.79604E+01-2.20666E+01-1.51584E+01



 n o d a l   p r i n t   o u t   f o r   t i m e  s t e p   14402                              ( at time 7.1997794E+00 )

 nodal point  x-rot      y-rot       z-rot       x-rot vel   y-rot vel   z-rot vel   x-rot acc   y-rot acc   z-rot acc
    22626  2.85630E-04 3.14948E-03 3.01251E-04 7.63470E-04 4.82576E-03-2.60052E-04 1.26247E-03 3.79918E-03-4.22038E-04



 n o d a l   p r i n t   o u t   f o r   t i m e  s t e p   14602                              ( at time 7.2997694E+00 )

 nodal point  x-disp     y-disp      z-disp      x-vel       y-vel       z-vel      x-accl      y-accl      z-accl      x-coor      y-coor      z-coor
    22626 -7.15294E-03-3.48011E-02-2.27777E+01-3.49714E-02 1.97662E-02-2.78725E+00-3.07999E-02-9.44058E-03 4.33150E-01 4.79570E+01-2.20646E+01-1.54392E+01



 n o d a l   p r i n t   o u t   f o r   t i m e  s t e p   14602                              ( at time 7.2997694E+00 )

 nodal point  x-rot      y-rot       z-rot       x-rot vel   y-rot vel   z-rot vel   x-rot acc   y-rot acc   z-rot acc
    22626  3.68445E-04 3.65101E-03 2.75047E-04 8.92727E-04 5.21301E-03-2.51485E-04 1.29271E-03 3.87288E-03 8.56740E-05



 n o d a l   p r i n t   o u t   f o r   t i m e  s t e p   14802                              ( at time 7.3997594E+00 )

 nodal point  x-disp     y-disp      z-disp      x-vel       y-vel       z-vel      x-accl      y-accl      z-accl      x-coor      y-coor      z-coor
    22626 -1.09107E-02-3.28215E-02-2.30541E+01-3.90757E-02 1.94847E-02-2.74136E+00-4.10472E-02-2.81454E-03 4.58928E-01 4.79533E+01-2.20626E+01-1.57156E+01



 n o d a l   p r i n t   o u t   f o r   t i m e  s t e p   14802                              ( at time 7.3997594E+00 )

 nodal point  x-rot      y-rot       z-rot       x-rot vel   y-rot vel   z-rot vel   x-rot acc   y-rot acc   z-rot acc
    22626  4.65428E-04 4.19067E-03 2.49014E-04 1.05090E-03 5.56502E-03-2.54820E-04 1.58186E-03 3.52054E-03-3.33491E-05



 n o d a l   p r i n t   o u t   f o r   t i m e  s t e p   15002                              ( at time 7.4997494E+00 )

 nodal point  x-disp     y-disp      z-disp      x-vel       y-vel       z-vel      x-accl      y-accl      z-accl      x-coor      y-coor      z-coor
    22626 -1.49746E-02-3.08844E-02-2.33257E+01-4.28453E-02 1.90549E-02-2.69095E+00-3.77001E-02-4.29864E-03 5.04106E-01 4.79492E+01-2.20607E+01-1.59872E+01



 n o d a l   p r i n t   o u t   f o r   t i m e  s t e p   15002                              ( at time 7.4997494E+00 )

 nodal point  x-rot      y-rot       z-rot       x-rot vel   y-rot vel   z-rot vel   x-rot acc   y-rot acc   z-rot acc
    22626  5.78431E-04 4.76205E-03 2.23959E-04 1.21687E-03 5.87980E-03-2.43329E-04 1.65985E-03 3.14809E-03 1.14922E-04



 n o d a l   p r i n t   o u t   f o r   t i m e  s t e p   15202                              ( at time 7.5997394E+00 )

 nodal point  x-disp     y-disp      z-disp      x-vel       y-vel       z-vel      x-accl      y-accl      z-accl      x-coor      y-coor      z-coor
    22626 -1.91790E-02-2.91170E-02-2.35923E+01-4.27520E-02 1.65100E-02-2.64027E+00 9.33242E-04-2.54518E-02 5.06850E-01 4.79450E+01-2.20589E+01-1.62538E+01



 n o d a l   p r i n t   o u t   f o r   t i m e  s t e p   15202                              ( at time 7.5997394E+00 )

 nodal point  x-rot      y-rot       z-rot       x-rot vel   y-rot vel   z-rot vel   x-rot acc   y-rot acc   z-rot acc
    22626  7.08748E-04 5.36255E-03 2.00465E-04 1.40453E-03 6.16463E-03-2.08450E-04 1.87679E-03 2.84855E-03 3.48830E-04



 n o d a l   p r i n t   o u t   f o r   t i m e  s t e p   15402                              ( at time 7.6997294E+00 )

 nodal point  x-disp     y-disp      z-disp      x-vel       y-vel       z-vel      x-accl      y-accl      z-accl      x-coor      y-coor      z-coor
    22626 -2.35722E-02-2.74775E-02-2.38535E+01-4.42071E-02 1.45830E-02-2.58609E+00-1.45525E-02-1.92717E-02 5.41863E-01 4.79406E+01-2.20573E+01-1.65150E+01



 n o d a l   p r i n t   o u t   f o r   t i m e  s t e p   15402                              ( at time 7.6997294E+00 )

 nodal point  x-rot      y-rot       z-rot       x-rot vel   y-rot vel   z-rot vel   x-rot acc   y-rot acc   z-rot acc
    22626  8.60102E-04 5.99308E-03 1.78667E-04 1.60777E-03 6.43146E-03-1.77979E-04 2.03268E-03 2.66857E-03 3.04732E-04



 n o d a l   p r i n t   o u t   f o r   t i m e  s t e p   15602                              ( at time 7.7997194E+00 )

 nodal point  x-disp     y-disp      z-disp      x-vel       y-vel       z-vel      x-accl      y-accl      z-accl      x-coor      y-coor      z-coor
    22626 -2.79734E-02-2.59214E-02-2.41094E+01-4.35264E-02 1.52198E-02-2.53056E+00 6.80780E-03 6.36895E-03 5.55321E-01 4.79362E+01-2.20557E+01-1.67709E+01



 n o d a l   p r i n t   o u t   f o r   t i m e  s t e p   15602                              ( at time 7.7997194E+00 )

 nodal point  x-rot      y-rot       z-rot       x-rot vel   y-rot vel   z-rot vel   x-rot acc   y-rot acc   z-rot acc
    22626  1.03279E-03 6.64726E-03 1.60817E-04 1.82193E-03 6.66682E-03-1.45275E-04 2.14174E-03 2.35381E-03 3.27073E-04



 n o d a l   p r i n t   o u t   f o r   t i m e  s t e p   15802                              ( at time 7.8997094E+00 )

 nodal point  x-disp     y-disp      z-disp      x-vel       y-vel       z-vel      x-accl      y-accl      z-accl      x-coor      y-coor      z-coor
    22626 -3.22896E-02-2.44731E-02-2.43594E+01-4.21608E-02 1.44853E-02-2.47019E+00 1.36574E-02-7.34603E-03 6.03854E-01 4.79319E+01-2.20543E+01-1.70209E+01



 n o d a l   p r i n t   o u t   f o r   t i m e  s t e p   15802                              ( at time 7.8997094E+00 )

 nodal point  x-rot      y-rot       z-rot       x-rot vel   y-rot vel   z-rot vel   x-rot acc   y-rot acc   z-rot acc
    22626  1.22975E-03 7.32314E-03 1.47458E-04 2.11005E-03 6.87672E-03-9.47996E-05 2.88154E-03 2.09924E-03 5.04810E-04



 n o d a l   p r i n t   o u t   f o r   t i m e  s t e p   16002                              ( at time 7.9996994E+00 )

 nodal point  x-disp     y-disp      z-disp      x-vel       y-vel       z-vel      x-accl      y-accl      z-accl      x-coor      y-coor      z-coor
    22626 -3.63368E-02-2.29817E-02-2.46033E+01-3.93015E-02 1.41340E-02-2.40944E+00 2.85953E-02-3.51350E-03 6.07528E-01 4.79278E+01-2.20528E+01-1.72648E+01



 n o d a l   p r i n t   o u t   f o r   t i m e  s t e p   16002                              ( at time 7.9996994E+00 )

 nodal point  x-rot      y-rot       z-rot       x-rot vel   y-rot vel   z-rot vel   x-rot acc   y-rot acc   z-rot acc
    22626  1.45490E-03 8.02042E-03 1.38757E-04 2.40159E-03 7.07068E-03-5.37222E-05 2.91567E-03 1.93978E-03 4.10813E-04



 n o d a l   p r i n t   o u t   f o r   t i m e  s t e p   16202                              ( at time 8.0996894E+00 )

 nodal point  x-disp     y-disp      z-disp      x-vel       y-vel       z-vel      x-accl      y-accl      z-accl      x-coor      y-coor      z-coor
    22626 -3.99306E-02-2.15261E-02-2.48409E+01-3.21316E-02 1.53761E-02-2.34330E+00 7.17062E-02 1.24218E-02 6.61445E-01 4.79242E+01-2.20513E+01-1.75024E+01



 n o d a l   p r i n t   o u t   f o r   t i m e  s t e p   16202                              ( at time 8.0996894E+00 )

 nodal point  x-rot      y-rot       z-rot       x-rot vel   y-rot vel   z-rot vel   x-rot acc   y-rot acc   z-rot acc
    22626  1.71031E-03 8.73469E-03 1.35006E-04 2.72390E-03 7.22078E-03-1.16927E-05 3.22347E-03 1.50119E-03 4.20338E-04



 n o d a l   p r i n t   o u t   f o r   t i m e  s t e p   16402                              ( at time 8.1996794E+00 )

 nodal point  x-disp     y-disp      z-disp      x-vel       y-vel       z-vel      x-accl      y-accl      z-accl      x-coor      y-coor      z-coor
    22626 -4.29259E-02-1.99577E-02-2.50720E+01-2.79278E-02 1.72772E-02-2.27726E+00 4.20425E-02 1.90135E-02 6.60517E-01 4.79213E+01-2.20497E+01-1.77335E+01



 n o d a l   p r i n t   o u t   f o r   t i m e  s t e p   16402                              ( at time 8.1996794E+00 )

 nodal point  x-rot      y-rot       z-rot       x-rot vel   y-rot vel   z-rot vel   x-rot acc   y-rot acc   z-rot acc
    22626  1.99957E-03 9.46451E-03 1.37571E-04 3.07784E-03 7.39535E-03 4.03856E-05 3.53970E-03 1.74582E-03 5.20835E-04



 n o d a l   p r i n t   o u t   f o r   t i m e  s t e p   16602                              ( at time 8.2996694E+00 )

 nodal point  x-disp     y-disp      z-disp      x-vel       y-vel       z-vel      x-accl      y-accl      z-accl      x-coor      y-coor      z-coor
    22626 -4.52066E-02-1.82149E-02-2.52963E+01-1.80856E-02 1.67480E-02-2.20737E+00 9.84322E-02-5.29315E-03 6.98930E-01 4.79190E+01-2.20480E+01-1.79578E+01



 n o d a l   p r i n t   o u t   f o r   t i m e  s t e p   16602                              ( at time 8.2996694E+00 )

 nodal point  x-rot      y-rot       z-rot       x-rot vel   y-rot vel   z-rot vel   x-rot acc   y-rot acc   z-rot acc
    22626  2.32308E-03 1.02091E-02 1.44790E-04 3.40322E-03 7.49889E-03 1.31383E-04 3.25410E-03 1.03554E-03 9.10065E-04



 n o d a l   p r i n t   o u t   f o r   t i m e  s t e p   16802                              ( at time 8.3996594E+00 )

 nodal point  x-disp     y-disp      z-disp      x-vel       y-vel       z-vel      x-accl      y-accl      z-accl      x-coor      y-coor      z-coor
    22626 -4.65723E-02-1.62570E-02-2.55134E+01-8.88537E-03 2.11677E-02-2.13881E+00 9.20115E-02 4.42017E-02 6.85706E-01 4.79176E+01-2.20460E+01-1.81749E+01



 n o d a l   p r i n t   o u t   f o r   t i m e  s t e p   16802                              ( at time 8.3996594E+00 )

 nodal point  x-rot      y-rot       z-rot       x-rot vel   y-rot vel   z-rot vel   x-rot acc   y-rot acc   z-rot acc
    22626  2.68416E-03 1.09671E-02 1.57585E-04 3.82654E-03 7.63150E-03 1.50289E-04 4.23371E-03 1.32618E-03 1.89077E-04



 n o d a l   p r i n t   o u t   f o r   t i m e  s t e p   17002                              ( at time 8.4996494E+00 )

 nodal point  x-disp     y-disp      z-disp      x-vel       y-vel       z-vel      x-accl      y-accl      z-accl      x-coor      y-coor      z-coor
    22626 -4.68841E-02-1.42347E-02-2.57233E+01 3.23706E-03 2.07214E-02-2.05956E+00 1.21237E-01-4.46326E-03 7.92500E-01 4.79173E+01-2.20440E+01-1.83848E+01



 n o d a l   p r i n t   o u t   f o r   t i m e  s t e p   17002                              ( at time 8.4996494E+00 )

 nodal point  x-rot      y-rot       z-rot       x-rot vel   y-rot vel   z-rot vel   x-rot acc   y-rot acc   z-rot acc
    22626  3.08454E-03 1.17353E-02 1.75192E-04 4.19529E-03 7.74759E-03 2.24409E-04 3.68781E-03 1.16105E-03 7.41280E-04



 n o d a l   p r i n t   o u t   f o r   t i m e  s t e p   17202                              ( at time 8.5996394E+00 )

 nodal point  x-disp     y-disp      z-disp      x-vel       y-vel       z-vel      x-accl      y-accl      z-accl      x-coor      y-coor      z-coor
    22626 -4.59952E-02-1.20632E-02-2.59257E+01 1.32018E-02 2.39485E-02-1.98620E+00 9.96571E-02 3.22741E-02 7.33760E-01 4.79182E+01-2.20419E+01-1.85872E+01



 n o d a l   p r i n t   o u t   f o r   t i m e  s t e p   17202                              ( at time 8.5996394E+00 )

 nodal point  x-rot      y-rot       z-rot       x-rot vel   y-rot vel   z-rot vel   x-rot acc   y-rot acc   z-rot acc
    22626  3.52367E-03 1.25146E-02 1.98992E-04 4.60937E-03 7.84262E-03 2.69791E-04 4.14123E-03 9.50408E-04 4.53867E-04



 n o d a l   p r i n t   o u t   f o r   t i m e  s t e p   17402                              ( at time 8.6996293E+00 )

 nodal point  x-disp     y-disp      z-disp      x-vel       y-vel       z-vel      x-accl      y-accl      z-accl      x-coor      y-coor      z-coor
    22626 -4.39044E-02-9.68626E-03-2.61203E+01 2.91967E-02 2.37678E-02-1.90870E+00 1.59964E-01-1.80688E-03 7.75051E-01 4.79203E+01-2.20395E+01-1.87818E+01



 n o d a l   p r i n t   o u t   f o r   t i m e  s t e p   17402                              ( at time 8.6996293E+00 )

 nodal point  x-rot      y-rot       z-rot       x-rot vel   y-rot vel   z-rot vel   x-rot acc   y-rot acc   z-rot acc
    22626  4.00536E-03 1.33004E-02 2.27563E-04 5.01915E-03 7.88566E-03 3.09075E-04 4.09818E-03 4.30413E-04 3.92873E-04



 n o d a l   p r i n t   o u t   f o r   t i m e  s t e p   17602                              ( at time 8.7996193E+00 )

 nodal point  x-disp     y-disp      z-disp      x-vel       y-vel       z-vel      x-accl      y-accl      z-accl      x-coor      y-coor      z-coor
    22626 -4.03988E-02-7.08932E-03-2.63070E+01 4.28022E-02 2.32832E-02-1.82584E+00 1.36069E-01-4.84616E-03 8.28663E-01 4.79238E+01-2.20369E+01-1.89685E+01



 n o d a l   p r i n t   o u t   f o r   t i m e  s t e p   17602                              ( at time 8.7996193E+00 )

 nodal point  x-rot      y-rot       z-rot       x-rot vel   y-rot vel   z-rot vel   x-rot acc   y-rot acc   z-rot acc
    22626  4.52962E-03 1.40955E-02 2.58282E-04 5.45667E-03 8.01751E-03 4.12897E-04 4.37565E-03 1.31867E-03 1.03833E-03



 n o d a l   p r i n t   o u t   f o r   t i m e  s t e p   17802                              ( at time 8.8996093E+00 )

 nodal point  x-disp     y-disp      z-disp      x-vel       y-vel       z-vel      x-accl      y-accl      z-accl      x-coor      y-coor      z-coor
    22626 -3.55859E-02-4.50406E-03-2.64857E+01 5.40317E-02 2.89293E-02-1.74626E+00 1.12306E-01 5.64665E-02 7.95831E-01 4.79286E+01-2.20343E+01-1.91472E+01



 n o d a l   p r i n t   o u t   f o r   t i m e  s t e p   17802                              ( at time 8.8996093E+00 )

 nodal point  x-rot      y-rot       z-rot       x-rot vel   y-rot vel   z-rot vel   x-rot acc   y-rot acc   z-rot acc
    22626  5.09566E-03 1.48931E-02 2.94474E-04 5.86663E-03 8.01668E-03 3.80680E-04 4.10000E-03-8.31755E-06-3.22200E-04



 n o d a l   p r i n t   o u t   f o r   t i m e  s t e p   18002                              ( at time 8.9995993E+00 )

 nodal point  x-disp     y-disp      z-disp      x-vel       y-vel       z-vel      x-accl      y-accl      z-accl      x-coor      y-coor      z-coor
    22626 -2.92511E-02-1.79857E-03-2.66563E+01 7.01596E-02 2.68057E-02-1.66472E+00 1.61295E-01-2.12385E-02 8.15537E-01 4.79349E+01-2.20316E+01-1.93178E+01



 n o d a l   p r i n t   o u t   f o r   t i m e  s t e p   18002                              ( at time 8.9995993E+00 )

 nodal point  x-rot      y-rot       z-rot       x-rot vel   y-rot vel   z-rot vel   x-rot acc   y-rot acc   z-rot acc
    22626  5.70322E-03 1.56979E-02 3.32498E-04 6.32387E-03 8.10599E-03 3.99005E-04 4.57289E-03 8.93201E-04 1.83267E-04



 n o d a l   p r i n t   o u t   f o r   t i m e  s t e p   18202                              ( at time 9.0995893E+00 )

 nodal point  x-disp     y-disp      z-disp      x-vel       y-vel       z-vel      x-accl      y-accl      z-accl      x-coor      y-coor      z-coor
    22626 -2.15006E-02 1.08530E-03-2.68187E+01 8.46698E-02 2.83864E-02-1.58526E+00 1.45117E-01 1.58089E-02 7.94626E-01 4.79427E+01-2.20287E+01-1.94802E+01



 n o d a l   p r i n t   o u t   f o r   t i m e  s t e p   18202                              ( at time 9.0995893E+00 )

 nodal point  x-rot      y-rot       z-rot       x-rot vel   y-rot vel   z-rot vel   x-rot acc   y-rot acc   z-rot acc
    22626  6.35424E-03 1.65117E-02 3.75448E-04 6.68482E-03 8.14653E-03 4.84418E-04 3.60988E-03 4.05408E-04 8.54211E-04



 n o d a l   p r i n t   o u t   f o r   t i m e  s t e p   18402                              ( at time 9.1995793E+00 )

 nodal point  x-disp     y-disp      z-disp      x-vel       y-vel       z-vel      x-accl      y-accl      z-accl      x-coor      y-coor      z-coor
    22626 -1.24258E-02 4.08266E-03-2.69730E+01 1.01008E-01 3.25241E-02-1.50177E+00 1.63400E-01 4.13814E-02 8.35047E-01 4.79518E+01-2.20257E+01-1.96345E+01



 n o d a l   p r i n t   o u t   f o r   t i m e  s t e p   18402                              ( at time 9.1995793E+00 )

 nodal point  x-rot      y-rot       z-rot       x-rot vel   y-rot vel   z-rot vel   x-rot acc   y-rot acc   z-rot acc
    22626  7.04575E-03 1.73288E-02 4.19245E-04 7.14739E-03 8.17441E-03 4.27259E-04 4.62616E-03 2.78848E-04-5.71646E-04



 n o d a l   p r i n t   o u t   f o r   t i m e  s t e p   18602                              ( at time 9.2995693E+00 )

 nodal point  x-disp     y-disp      z-disp      x-vel       y-vel       z-vel      x-accl      y-accl      z-accl      x-coor      y-coor      z-coor
    22626 -1.90149E-03 7.00780E-03-2.71189E+01 1.08735E-01 2.88938E-02-1.41427E+00 7.72749E-02-3.63075E-02 8.75021E-01 4.79623E+01-2.20228E+01-1.97804E+01



 n o d a l   p r i n t   o u t   f o r   t i m e  s t e p   18602                              ( at time 9.2995693E+00 )

 nodal point  x-rot      y-rot       z-rot       x-rot vel   y-rot vel   z-rot vel   x-rot acc   y-rot acc   z-rot acc
    22626  7.77901E-03 1.81521E-02 4.64161E-04 7.55512E-03 8.33256E-03 5.05351E-04 4.07772E-03 1.58164E-03 7.81005E-04



 n o d a l   p r i n t   o u t   f o r   t i m e  s t e p   18802                              ( at time 9.3995593E+00 )

 nodal point  x-disp     y-disp      z-disp      x-vel       y-vel       z-vel      x-accl      y-accl      z-accl      x-coor      y-coor      z-coor
    22626  1.01642E-02 1.01924E-02-2.72566E+01 1.29715E-01 2.89843E-02-1.33660E+00 2.09822E-01 9.05933E-04 7.76819E-01 4.79743E+01-2.20196E+01-1.99181E+01



 n o d a l   p r i n t   o u t   f o r   t i m e  s t e p   18802                              ( at time 9.3995593E+00 )

 nodal point  x-rot      y-rot       z-rot       x-rot vel   y-rot vel   z-rot vel   x-rot acc   y-rot acc   z-rot acc
    22626  8.55086E-03 1.89827E-02 5.10922E-04 7.89927E-03 8.30705E-03 5.09713E-04 3.44179E-03-2.55068E-04 4.36246E-05



 n o d a l   p r i n t   o u t   f o r   t i m e  s t e p   19002                              ( at time 9.4995493E+00 )

 nodal point  x-disp     y-disp      z-disp      x-vel       y-vel       z-vel      x-accl      y-accl      z-accl      x-coor      y-coor      z-coor
    22626  2.34295E-02 1.33438E-02-2.73857E+01 1.43680E-01 3.45142E-02-1.25461E+00 1.39665E-01 5.53043E-02 8.19997E-01 4.79876E+01-2.20164E+01-2.00472E+01



 n o d a l   p r i n t   o u t   f o r   t i m e  s t e p   19002                              ( at time 9.4995493E+00 )

 nodal point  x-rot      y-rot       z-rot       x-rot vel   y-rot vel   z-rot vel   x-rot acc   y-rot acc   z-rot acc
    22626  9.36270E-03 1.98199E-02 5.59131E-04 8.31196E-03 8.36068E-03 4.23345E-04 4.12734E-03 5.36300E-04-8.63777E-04



 n o d a l   p r i n t   o u t   f o r   t i m e  s t e p   19202                              ( at time 9.5995393E+00 )

 nodal point  x-disp     y-disp      z-disp      x-vel       y-vel       z-vel      x-accl      y-accl      z-accl      x-coor      y-coor      z-coor
    22626  3.80967E-02 1.65195E-02-2.75065E+01 1.51262E-01 2.98618E-02-1.15908E+00 7.58241E-02-4.65281E-02 9.55366E-01 4.80023E+01-2.20133E+01-2.01680E+01



 n o d a l   p r i n t   o u t   f o r   t i m e  s t e p   19202                              ( at time 9.5995393E+00 )

 nodal point  x-rot      y-rot       z-rot       x-rot vel   y-rot vel   z-rot vel   x-rot acc   y-rot acc   z-rot acc
    22626  1.02128E-02 2.06639E-02 6.06354E-04 8.69660E-03 8.55680E-03 5.18281E-04 3.84678E-03 1.96136E-03 9.49448E-04



 n o d a l   p r i n t   o u t   f o r   t i m e  s t e p   19402                              ( at time 9.6995293E+00 )

 nodal point  x-disp     y-disp      z-disp      x-vel       y-vel       z-vel      x-accl      y-accl      z-accl      x-coor      y-coor      z-coor
    22626  5.41069E-02 1.96502E-02-2.76188E+01 1.67843E-01 3.15524E-02-1.08381E+00 1.65828E-01 1.69080E-02 7.52840E-01 4.80183E+01-2.20101E+01-2.02803E+01



 n o d a l   p r i n t   o u t   f o r   t i m e  s t e p   19402                              ( at time 9.6995293E+00 )

 nodal point  x-rot      y-rot       z-rot       x-rot vel   y-rot vel   z-rot vel   x-rot acc   y-rot acc   z-rot acc
    22626  1.11015E-02 2.15111E-02 6.56339E-04 9.05812E-03 8.46815E-03 4.84340E-04 3.61556E-03-8.86578E-04-3.39443E-04



 n o d a l   p r i n t   o u t   f o r   t i m e  s t e p   19602                              ( at time 9.7995193E+00 )

 nodal point  x-disp     y-disp      z-disp      x-vel       y-vel       z-vel      x-accl      y-accl      z-accl      x-coor      y-coor      z-coor
    22626  7.13034E-02 2.27008E-02-2.77224E+01 1.80332E-01 3.00811E-02-9.95145E-01 1.24901E-01-1.47150E-02 8.86692E-01 4.80355E+01-2.20071E+01-2.03839E+01



 n o d a l   p r i n t   o u t   f o r   t i m e  s t e p   19602                              ( at time 9.7995193E+00 )

 nodal point  x-rot      y-rot       z-rot       x-rot vel   y-rot vel   z-rot vel   x-rot acc   y-rot acc   z-rot acc
    22626  1.20253E-02 2.23695E-02 7.03259E-04 9.41775E-03 8.63198E-03 4.21660E-04 3.59665E-03 1.63854E-03-6.26863E-04



 n o d a l   p r i n t   o u t   f o r   t i m e  s t e p   19802                              ( at time 9.8995093E+00 )

 nodal point  x-disp     y-disp      z-disp      x-vel       y-vel       z-vel      x-accl      y-accl      z-accl      x-coor      y-coor      z-coor
    22626  8.96872E-02 2.56600E-02-2.78175E+01 1.88429E-01 2.89484E-02-9.08178E-01 8.09841E-02-1.13284E-02 8.69761E-01 4.80539E+01-2.20041E+01-2.04790E+01



 n o d a l   p r i n t   o u t   f o r   t i m e  s t e p   19802                              ( at time 9.8995093E+00 )

 nodal point  x-rot      y-rot       z-rot       x-rot vel   y-rot vel   z-rot vel   x-rot acc   y-rot acc   z-rot acc
    22626  1.29866E-02 2.32374E-02 7.49707E-04 9.78982E-03 8.68957E-03 4.73909E-04 3.72105E-03 5.75932E-04 5.22545E-04



 n o d a l   p r i n t   o u t   f o r   t i m e  s t e p   20003                              ( at time 9.9999992E+00 )

 nodal point  x-disp     y-disp      z-disp      x-vel       y-vel       z-vel      x-accl      y-accl      z-accl      x-coor      y-coor      z-coor
[...]
    22626  2.02612E-01 1.31436E-01-2.39330E-02 1.73599E-02 7.12541E-03-4.19735E-03-2.82962E-05-1.85169E-04 3.86814E-05



 n o d a l   p r i n t   o u t   f o r   t i m e  s t e p   45205                              ( at time 2.2599738E+01 )

 nodal point  x-disp     y-disp      z-disp      x-vel       y-vel       z-vel      x-accl      y-accl      z-accl      x-coor      y-coor      z-coor
    22626  4.27220E+00-2.05640E+00-2.21726E+01 2.43081E-01-2.46319E-01 5.23336E-01 6.20690E-04 6.74995E-03 1.21092E-02 5.22364E+01-2.40862E+01-1.48341E+01



 n o d a l   p r i n t   o u t   f o r   t i m e  s t e p   45205                              ( at time 2.2599738E+01 )

 nodal point  x-rot      y-rot       z-rot       x-rot vel   y-rot vel   z-rot vel   x-rot acc   y-rot acc   z-rot acc
    22626  2.04346E-01 1.32148E-01-2.43517E-02 1.73483E-02 7.13689E-03-4.16563E-03-1.15569E-04 1.14894E-04 3.17200E-04



 n o d a l   p r i n t   o u t   f o r   t i m e  s t e p   45405                              ( at time 2.2699728E+01 )

 nodal point  x-disp     y-disp      z-disp      x-vel       y-vel       z-vel      x-accl      y-accl      z-accl      x-coor      y-coor      z-coor
    22626  4.29650E+00-2.08099E+00-2.21202E+01 2.42548E-01-2.45737E-01 5.23372E-01-5.32433E-03 5.81835E-03 3.60052E-04 5.22607E+01-2.41108E+01-1.47817E+01



 n o d a l   p r i n t   o u t   f o r   t i m e  s t e p   45405                              ( at time 2.2699728E+01 )

 nodal point  x-rot      y-rot       z-rot       x-rot vel   y-rot vel   z-rot vel   x-rot acc   y-rot acc   z-rot acc
    22626  2.06080E-01 1.32860E-01-2.47693E-02 1.73430E-02 7.11876E-03-4.17432E-03-5.26814E-05-1.81390E-04-8.69253E-05



 n o d a l   p r i n t   o u t   f o r   t i m e  s t e p   45605                              ( at time 2.2799718E+01 )

 nodal point  x-disp     y-disp      z-disp      x-vel       y-vel       z-vel      x-accl      y-accl      z-accl      x-coor      y-coor      z-coor
    22626  4.32080E+00-2.10546E+00-2.20679E+01 2.42959E-01-2.44667E-01 5.23699E-01 4.10639E-03 1.07078E-02 3.27140E-03 5.22850E+01-2.41353E+01-1.47294E+01



 n o d a l   p r i n t   o u t   f o r   t i m e  s t e p   45605                              ( at time 2.2799718E+01 )

 nodal point  x-rot      y-rot       z-rot       x-rot vel   y-rot vel   z-rot vel   x-rot acc   y-rot acc   z-rot acc
    22626  2.07814E-01 1.33572E-01-2.51865E-02 1.73424E-02 7.11517E-03-4.15957E-03-5.83061E-06-3.58778E-05 1.47544E-04



 n o d a l   p r i n t   o u t   f o r   t i m e  s t e p   45805                              ( at time 2.2899708E+01 )

 nodal point  x-disp     y-disp      z-disp      x-vel       y-vel       z-vel      x-accl      y-accl      z-accl      x-coor      y-coor      z-coor
    22626  4.34513E+00-2.12985E+00-2.20155E+01 2.43124E-01-2.43516E-01 5.25072E-01 1.64944E-03 1.15033E-02 1.37285E-02 5.23093E+01-2.41596E+01-1.46770E+01



 n o d a l   p r i n t   o u t   f o r   t i m e  s t e p   45805                              ( at time 2.2899708E+01 )

 nodal point  x-rot      y-rot       z-rot       x-rot vel   y-rot vel   z-rot vel   x-rot acc   y-rot acc   z-rot acc
    22626  2.09548E-01 1.34283E-01-2.56023E-02 1.73356E-02 7.11349E-03-4.14595E-03-6.89814E-05-1.67796E-05 1.36198E-04



 n o d a l   p r i n t   o u t   f o r   t i m e  s t e p   46005                              ( at time 2.2999698E+01 )

 nodal point  x-disp     y-disp      z-disp      x-vel       y-vel       z-vel      x-accl      y-accl      z-accl      x-coor      y-coor      z-coor
    22626  4.36948E+00-2.15413E+00-2.19630E+01 2.43872E-01-2.42313E-01 5.24714E-01 7.48703E-03 1.20327E-02-3.57243E-03 5.23337E+01-2.41839E+01-1.46245E+01



 n o d a l   p r i n t   o u t   f o r   t i m e  s t e p   46005                              ( at time 2.2999698E+01 )

 nodal point  x-rot      y-rot       z-rot       x-rot vel   y-rot vel   z-rot vel   x-rot acc   y-rot acc   z-rot acc
    22626  2.11282E-01 1.34994E-01-2.60172E-02 1.73286E-02 7.09321E-03-4.14653E-03-6.92595E-05-2.02870E-04-5.79801E-06



 n o d a l   p r i n t   o u t   f o r   t i m e  s t e p   46205                              ( at time 2.3099688E+01 )

 nodal point  x-disp     y-disp      z-disp      x-vel       y-vel       z-vel      x-accl      y-accl      z-accl      x-coor      y-coor      z-coor
    22626  4.39388E+00-2.17833E+00-2.19105E+01 2.44626E-01-2.41608E-01 5.27101E-01 7.53665E-03 7.05678E-03 2.38719E-02 5.23581E+01-2.42081E+01-1.45720E+01



 n o d a l   p r i n t   o u t   f o r   t i m e  s t e p   46205                              ( at time 2.3099688E+01 )

 nodal point  x-rot      y-rot       z-rot       x-rot vel   y-rot vel   z-rot vel   x-rot acc   y-rot acc   z-rot acc
    22626  2.13013E-01 1.35704E-01-2.64314E-02 1.73132E-02 7.11625E-03-4.14259E-03-1.54207E-04 2.30444E-04 3.94412E-05



 n o d a l   p r i n t   o u t   f o r   t i m e  s t e p   46405                              ( at time 2.3199678E+01 )

 nodal point  x-disp     y-disp      z-disp      x-vel       y-vel       z-vel      x-accl      y-accl      z-accl      x-coor      y-coor      z-coor
    22626  4.41831E+00-2.20248E+00-2.18578E+01 2.44767E-01-2.40505E-01 5.26946E-01 1.40874E-03 1.10231E-02-1.54986E-03 5.23825E+01-2.42323E+01-1.45193E+01



 n o d a l   p r i n t   o u t   f o r   t i m e  s t e p   46405                              ( at time 2.3199678E+01 )

 nodal point  x-rot      y-rot       z-rot       x-rot vel   y-rot vel   z-rot vel   x-rot acc   y-rot acc   z-rot acc
    22626  2.14745E-01 1.36415E-01-2.68443E-02 1.73014E-02 7.09017E-03-4.13754E-03-1.17711E-04-2.60771E-04 5.04683E-05



 n o d a l   p r i n t   o u t   f o r   t i m e  s t e p   46605                              ( at time 2.3299668E+01 )

 nodal point  x-disp     y-disp      z-disp      x-vel       y-vel       z-vel      x-accl      y-accl      z-accl      x-coor      y-coor      z-coor
    22626  4.44283E+00-2.22646E+00-2.18050E+01 2.45090E-01-2.39547E-01 5.29125E-01 3.23421E-03 9.58802E-03 2.17909E-02 5.24070E+01-2.42563E+01-1.44665E+01



 n o d a l   p r i n t   o u t   f o r   t i m e  s t e p   46605                              ( at time 2.3299668E+01 )

 nodal point  x-rot      y-rot       z-rot       x-rot vel   y-rot vel   z-rot vel   x-rot acc   y-rot acc   z-rot acc
    22626  2.16475E-01 1.37125E-01-2.72567E-02 1.72810E-02 7.11483E-03-4.13268E-03-2.04690E-04 2.46548E-04 4.86390E-05



 n o d a l   p r i n t   o u t   f o r   t i m e  s t e p   46805                              ( at time 2.3399658E+01 )

 nodal point  x-disp     y-disp      z-disp      x-vel       y-vel       z-vel      x-accl      y-accl      z-accl      x-coor      y-coor      z-coor
    22626  4.46736E+00-2.25038E+00-2.17520E+01 2.45998E-01-2.38219E-01 5.30784E-01 9.07936E-03 1.32767E-02 1.65871E-02 5.24315E+01-2.42802E+01-1.44135E+01



 n o d a l   p r i n t   o u t   f o r   t i m e  s t e p   46805                              ( at time 2.3399658E+01 )

 nodal point  x-rot      y-rot       z-rot       x-rot vel   y-rot vel   z-rot vel   x-rot acc   y-rot acc   z-rot acc
    22626  2.18203E-01 1.37836E-01-2.76685E-02 1.72798E-02 7.10614E-03-4.11310E-03-1.12887E-05-8.68212E-05 1.95782E-04



 n o d a l   p r i n t   o u t   f o r   t i m e  s t e p   47005                              ( at time 2.3499648E+01 )

 nodal point  x-disp     y-disp      z-disp      x-vel       y-vel       z-vel      x-accl      y-accl      z-accl      x-coor      y-coor      z-coor
    22626  4.49194E+00-2.27417E+00-2.16989E+01 2.46212E-01-2.37880E-01 5.31574E-01 2.13836E-03 3.39316E-03 7.90728E-03 5.24561E+01-2.43040E+01-1.43604E+01



 n o d a l   p r i n t   o u t   f o r   t i m e  s t e p   47005                              ( at time 2.3499648E+01 )

 nodal point  x-rot      y-rot       z-rot       x-rot vel   y-rot vel   z-rot vel   x-rot acc   y-rot acc   z-rot acc
    22626  2.19929E-01 1.38545E-01-2.80789E-02 1.72487E-02 7.10005E-03-4.09649E-03-3.11295E-04-6.09234E-05 1.66121E-04



 n o d a l   p r i n t   o u t   f o r   t i m e  s t e p   47205                              ( at time 2.3599638E+01 )

 nodal point  x-disp     y-disp      z-disp      x-vel       y-vel       z-vel      x-accl      y-accl      z-accl      x-coor      y-coor      z-coor
    22626  4.51656E+00-2.29785E+00-2.16456E+01 2.46928E-01-2.36418E-01 5.33334E-01 7.16065E-03 1.46198E-02 1.76002E-02 5.24807E+01-2.43276E+01-1.43071E+01



 n o d a l   p r i n t   o u t   f o r   t i m e  s t e p   47205                              ( at time 2.3599638E+01 )

 nodal point  x-rot      y-rot       z-rot       x-rot vel   y-rot vel   z-rot vel   x-rot acc   y-rot acc   z-rot acc
    22626  2.21653E-01 1.39255E-01-2.84889E-02 1.72383E-02 7.08204E-03-4.08652E-03-1.04338E-04-1.80152E-04 9.97743E-05



 n o d a l   p r i n t   o u t   f o r   t i m e  s t e p   47405                              ( at time 2.3699628E+01 )

 nodal point  x-disp     y-disp      z-disp      x-vel       y-vel       z-vel      x-accl      y-accl      z-accl      x-coor      y-coor      z-coor
    22626  4.54121E+00-2.32144E+00-2.15921E+01 2.46592E-01-2.35090E-01 5.35508E-01-3.36380E-03 1.32858E-02 2.17368E-02 5.25054E+01-2.43512E+01-1.42536E+01



 n o d a l   p r i n t   o u t   f o r   t i m e  s t e p   47405                              ( at time 2.3699628E+01 )

 nodal point  x-rot      y-rot       z-rot       x-rot vel   y-rot vel   z-rot vel   x-rot acc   y-rot acc   z-rot acc
    22626  2.23375E-01 1.39963E-01-2.88970E-02 1.72187E-02 7.08025E-03-4.06969E-03-1.95670E-04-1.78784E-05 1.68287E-04



 n o d a l   p r i n t   o u t   f o r   t i m e  s t e p   47605                              ( at time 2.3799618E+01 )

 nodal point  x-disp     y-disp      z-disp      x-vel       y-vel       z-vel      x-accl      y-accl      z-accl      x-coor      y-coor      z-coor
    22626  4.56585E+00-2.34498E+00-2.15386E+01 2.46121E-01-2.35038E-01 5.36485E-01-4.70243E-03 5.17277E-04 9.77863E-03 5.25300E+01-2.43748E+01-1.42001E+01



 n o d a l   p r i n t   o u t   f o r   t i m e  s t e p   47605                              ( at time 2.3799618E+01 )

 nodal point  x-rot      y-rot       z-rot       x-rot vel   y-rot vel   z-rot vel   x-rot acc   y-rot acc   z-rot acc
    22626  2.25095E-01 1.40671E-01-2.93036E-02 1.71949E-02 7.05804E-03-4.05510E-03-2.38128E-04-2.22126E-04 1.45857E-04



 n o d a l   p r i n t   o u t   f o r   t i m e  s t e p   47805                              ( at time 2.3899608E+01 )

 nodal point  x-disp     y-disp      z-disp      x-vel       y-vel       z-vel      x-accl      y-accl      z-accl      x-coor      y-coor      z-coor
    22626  4.59051E+00-2.36844E+00-2.14848E+01 2.46804E-01-2.34693E-01 5.37823E-01 6.82506E-03 3.45411E-03 1.33747E-02 5.25547E+01-2.43982E+01-1.41463E+01



 n o d a l   p r i n t   o u t   f o r   t i m e  s t e p   47805                              ( at time 2.3899608E+01 )

 nodal point  x-rot      y-rot       z-rot       x-rot vel   y-rot vel   z-rot vel   x-rot acc   y-rot acc   z-rot acc
    22626  2.26814E-01 1.41377E-01-2.97095E-02 1.71856E-02 7.03564E-03-4.05411E-03-9.30290E-05-2.24078E-04 9.91484E-06



 n o d a l   p r i n t   o u t   f o r   t i m e  s t e p   48005                              ( at time 2.3999598E+01 )

 nodal point  x-disp     y-disp      z-disp      x-vel       y-vel       z-vel      x-accl      y-accl      z-accl      x-coor      y-coor      z-coor
    22626  4.61516E+00-2.39185E+00-2.14310E+01 2.46284E-01-2.33256E-01 5.39848E-01-5.19750E-03 1.43685E-02 2.02559E-02 5.25793E+01-2.44216E+01-1.40925E+01



 n o d a l   p r i n t   o u t   f o r   t i m e  s t e p   48005                              ( at time 2.3999598E+01 )

 nodal point  x-rot      y-rot       z-rot       x-rot vel   y-rot vel   z-rot vel   x-rot acc   y-rot acc   z-rot acc
    22626  2.28530E-01 1.42081E-01-3.01136E-02 1.71593E-02 7.03663E-03-4.04246E-03-2.63258E-04 9.96625E-06 1.16507E-04



 n o d a l   p r i n t   o u t   f o r   t i m e  s t e p   48205                              ( at time 2.4099588E+01 )

 nodal point  x-disp     y-disp      z-disp      x-vel       y-vel       z-vel      x-accl      y-accl      z-accl      x-coor      y-coor      z-coor
    22626  4.63973E+00-2.41522E+00-2.13770E+01 2.45923E-01-2.33191E-01 5.39904E-01-3.60909E-03 6.48111E-04 5.60335E-04 5.26039E+01-2.44450E+01-1.40385E+01



 n o d a l   p r i n t   o u t   f o r   t i m e  s t e p   48205                              ( at time 2.4099588E+01 )

 nodal point  x-rot      y-rot       z-rot       x-rot vel   y-rot vel   z-rot vel   x-rot acc   y-rot acc   z-rot acc
    22626  2.30245E-01 1.42784E-01-3.05159E-02 1.71266E-02 7.00054E-03-4.03640E-03-3.26961E-04-3.61000E-04 6.06067E-05



 n o d a l   p r i n t   o u t   f o r   t i m e  s t e p   48405                              ( at time 2.4199578E+01 )

 nodal point  x-disp     y-disp      z-disp      x-vel       y-vel       z-vel      x-accl      y-accl      z-accl      x-coor      y-coor      z-coor
    22626  4.66434E+00-2.43857E+00-2.13230E+01 2.46152E-01-2.33113E-01 5.40907E-01 2.29116E-03 7.76436E-04 1.00278E-02 5.26285E+01-2.44684E+01-1.39845E+01



 n o d a l   p r i n t   o u t   f o r   t i m e  s t e p   48405                              ( at time 2.4199578E+01 )

 nodal point  x-rot      y-rot       z-rot       x-rot vel   y-rot vel   z-rot vel   x-rot acc   y-rot acc   z-rot acc
    22626  2.31956E-01 1.43484E-01-3.09168E-02 1.70988E-02 6.98153E-03-4.01882E-03-2.77565E-04-1.90113E-04 1.75900E-04



 n o d a l   p r i n t   o u t   f o r   t i m e  s t e p   48605                              ( at time 2.4299568E+01 )

 nodal point  x-disp     y-disp      z-disp      x-vel       y-vel       z-vel      x-accl      y-accl      z-accl      x-coor      y-coor      z-coor
    22626  4.68890E+00-2.46188E+00-2.12688E+01 2.45267E-01-2.32400E-01 5.42160E-01-8.85597E-03 7.13354E-03 1.25312E-02 5.26531E+01-2.44917E+01-1.39303E+01



 n o d a l   p r i n t   o u t   f o r   t i m e  s t e p   48605                              ( at time 2.4299568E+01 )

 nodal point  x-rot      y-rot       z-rot       x-rot vel   y-rot vel   z-rot vel   x-rot acc   y-rot acc   z-rot acc
    22626  2.33666E-01 1.44182E-01-3.13162E-02 1.70859E-02 6.96963E-03-4.00933E-03-1.29466E-04-1.18959E-04 9.48685E-05



 n o d a l   p r i n t   o u t   f o r   t i m e  s t e p   48805                              ( at time 2.4399558E+01 )

 nodal point  x-disp     y-disp      z-disp      x-vel       y-vel       z-vel      x-accl      y-accl      z-accl      x-coor      y-coor      z-coor
    22626  4.71337E+00-2.48516E+00-2.12145E+01 2.45280E-01-2.33059E-01 5.42859E-01 1.32334E-04-6.59437E-03 6.98750E-03 5.26776E+01-2.45150E+01-1.38760E+01



 n o d a l   p r i n t   o u t   f o r   t i m e  s t e p   48805                              ( at time 2.4399558E+01 )

 nodal point  x-rot      y-rot       z-rot       x-rot vel   y-rot vel   z-rot vel   x-rot acc   y-rot acc   z-rot acc
    22626  2.35372E-01 1.44877E-01-3.17139E-02 1.70467E-02 6.92771E-03-3.97850E-03-3.92365E-04-4.19283E-04 3.08361E-04



 n o d a l   p r i n t   o u t   f o r   t i m e  s t e p   49006                              ( at time 2.4500048E+01 )

 nodal point  x-disp     y-disp      z-disp      x-vel       y-vel       z-vel      x-accl      y-accl      z-accl      x-coor      y-coor      z-coor
    22626  4.73794E+00-2.50858E+00-2.11599E+01 2.44939E-01-2.33261E-01 5.43912E-01-3.39384E-03-2.00751E-03 1.04827E-02 5.27021E+01-2.45384E+01-1.38214E+01



 n o d a l   p r i n t   o u t   f o r   t i m e  s t e p   49006                              ( at time 2.4500048E+01 )

 nodal point  x-rot      y-rot       z-rot       x-rot vel   y-rot vel   z-rot vel   x-rot acc   y-rot acc   z-rot acc
    22626  2.37085E-01 1.45572E-01-3.21127E-02 1.70295E-02 6.90912E-03-3.95958E-03-1.70326E-04-1.84937E-04 1.88223E-04



 n o d a l   p r i n t   o u t   f o r   t i m e  s t e p   49206                              ( at time 2.4600038E+01 )

 nodal point  x-disp     y-disp      z-disp      x-vel       y-vel       z-vel      x-accl      y-accl      z-accl      x-coor      y-coor      z-coor
    22626  4.76235E+00-2.53186E+00-2.11055E+01 2.44084E-01-2.32198E-01 5.44242E-01-8.55345E-03 1.06349E-02 3.29584E-03 5.27265E+01-2.45617E+01-1.37670E+01



 n o d a l   p r i n t   o u t   f o r   t i m e  s t e p   49206                              ( at time 2.4600038E+01 )

 nodal point  x-rot      y-rot       z-rot       x-rot vel   y-rot vel   z-rot vel   x-rot acc   y-rot acc   z-rot acc
    22626  2.38787E-01 1.46262E-01-3.25082E-02 1.70131E-02 6.88342E-03-3.95805E-03-1.64803E-04-2.57031E-04 1.53729E-05



 n o d a l   p r i n t   o u t   f o r   t i m e  s t e p   49406                              ( at time 2.4700028E+01 )

 nodal point  x-disp     y-disp      z-disp      x-vel       y-vel       z-vel      x-accl      y-accl      z-accl      x-coor      y-coor      z-coor
    22626  4.78667E+00-2.55509E+00-2.10511E+01 2.42771E-01-2.32379E-01 5.44129E-01-1.31271E-02-1.81129E-03-1.13023E-03 5.27508E+01-2.45849E+01-1.37126E+01



 n o d a l   p r i n t   o u t   f o r   t i m e  s t e p   49406                              ( at time 2.4700028E+01 )

 nodal point  x-rot      y-rot       z-rot       x-rot vel   y-rot vel   z-rot vel   x-rot acc   y-rot acc   z-rot acc
    22626  2.40487E-01 1.46948E-01-3.29028E-02 1.69893E-02 6.84015E-03-3.94718E-03-2.38054E-04-4.32750E-04 1.08641E-04



 n o d a l   p r i n t   o u t   f o r   t i m e  s t e p   49606                              ( at time 2.4800018E+01 )

 nodal point  x-disp     y-disp      z-disp      x-vel       y-vel       z-vel      x-accl      y-accl      z-accl      x-coor      y-coor      z-coor
    22626  4.81096E+00-2.57832E+00-2.09967E+01 2.42483E-01-2.32078E-01 5.43525E-01-2.88543E-03 3.00644E-03-6.03612E-03 5.27751E+01-2.46081E+01-1.36582E+01



 n o d a l   p r i n t   o u t   f o r   t i m e  s t e p   49606                              ( at time 2.4800018E+01 )

 nodal point  x-rot      y-rot       z-rot       x-rot vel   y-rot vel   z-rot vel   x-rot acc   y-rot acc   z-rot acc
    22626  2.42185E-01 1.47631E-01-3.32963E-02 1.69684E-02 6.80884E-03-3.93598E-03-2.08561E-04-3.13097E-04 1.12053E-04



 n o d a l   p r i n t   o u t   f o r   t i m e  s t e p   49806                              ( at time 2.4900008E+01 )

 nodal point  x-disp     y-disp      z-disp      x-vel       y-vel       z-vel      x-accl      y-accl      z-accl      x-coor      y-coor      z-coor
    22626  4.83519E+00-2.60153E+00-2.09423E+01 2.41927E-01-2.31504E-01 5.44303E-01-5.55398E-03 5.74012E-03 7.78404E-03 5.27994E+01-2.46313E+01-1.36038E+01



 n o d a l   p r i n t   o u t   f o r   t i m e  s t e p   49806                              ( at time 2.4900008E+01 )

 nodal point  x-rot      y-rot       z-rot       x-rot vel   y-rot vel   z-rot vel   x-rot acc   y-rot acc   z-rot acc
    22626  2.43880E-01 1.48312E-01-3.36894E-02 1.69380E-02 6.79001E-03-3.94347E-03-3.04409E-04-1.88348E-04-7.49239E-05



 n o d a l   p r i n t   o u t   f o r   t i m e  s t e p   50006                              ( at time 2.4999998E+01 )

 nodal point  x-disp     y-disp      z-disp      x-vel       y-vel       z-vel      x-accl      y-accl      z-accl      x-coor      y-coor      z-coor
    22626  4.85940E+00-2.62464E+00-2.08878E+01 2.41656E-01-2.30473E-01 5.44834E-01-2.70988E-03 1.03191E-02 5.31186E-03 5.28236E+01-2.46544E+01-1.35493E+01



 n o d a l   p r i n t   o u t   f o r   t i m e  s t e p   50006                              ( at time 2.4999998E+01 )

 nodal point  x-rot      y-rot       z-rot       x-rot vel   y-rot vel   z-rot vel   x-rot acc   y-rot acc   z-rot acc
    22626  2.45573E-01 1.48990E-01-3.40823E-02 1.69109E-02 6.77044E-03-3.92911E-03-2.70984E-04-1.95777E-04 1.43614E-04
