 LSTC 50th% Full_FE H-III Dummy (Beta Version, February 17, 2019)        
                    ls-dyna smp s R16 R16.0_619_d222963 date 03/18/2025

{BEGIN LEGEND}
 Entity #        Title
    22626                                                                                     
{END LEGEND}




 n o d a l   p r i n t   o u t   f o r   t i m e  s t e p       1                              ( at time 0.0000000E+00 )

 nodal point  x-disp     y-disp      z-disp      x-vel       y-vel       z-vel      x-accl      y-accl      z-accl      x-coor      y-coor      z-coor
    22626  0.00000E+00 0.00000E+00 0.00000E+00 0.00000E+00 0.00000E+00 0.00000E+00 0.00000E+00 0.00000E+00 0.00000E+00 4.65938E+00-2.81908E+01-4.49817E+01



 n o d a l   p r i n t   o u t   f o r   t i m e  s t e p       1                              ( at time 0.0000000E+00 )

 nodal point  x-rot      y-rot       z-rot       x-rot vel   y-rot vel   z-rot vel   x-rot acc   y-rot acc   z-rot acc
    22626  0.00000E+00 0.00000E+00 0.00000E+00 0.00000E+00 0.00000E+00 0.00000E+00 0.00000E+00 0.00000E+00 0.00000E+00



 n o d a l   p r i n t   o u t   f o r   t i m e  s t e p     201                              ( at time 9.9989993E-02 )

 nodal point  x-disp     y-disp      z-disp      x-vel       y-vel       z-vel      x-accl      y-accl      z-accl      x-coor      y-coor      z-coor
    22626  2.73575E-07 1.73669E-06-5.34278E-05 4.19751E-05 2.55596E-04-1.46819E-03 4.19793E-04 2.55621E-03-1.46834E-02 4.65938E+00-2.81908E+01-4.49818E+01



 n o d a l   p r i n t   o u t   f o r   t i m e  s t e p     201                              ( at time 9.9989993E-02 )

 nodal point  x-rot      y-rot       z-rot       x-rot vel   y-rot vel   z-rot vel   x-rot acc   y-rot acc   z-rot acc
    22626 -5.98981E-08-8.38467E-09-5.45921E-09-5.86955E-06-9.69950E-07-9.27110E-07-5.87014E-05-9.70047E-06-9.27202E-06



 n o d a l   p r i n t   o u t   f o r   t i m e  s t e p     401                              ( at time 1.9997999E-01 )

 nodal point  x-disp     y-disp      z-disp      x-vel       y-vel       z-vel      x-accl      y-accl      z-accl      x-coor      y-coor      z-coor
    22626  1.73144E-05 3.61737E-04-6.67579E-04 3.06660E-05 7.81167E-03-1.21553E-02-1.13103E-04 7.55683E-02-1.06881E-01 4.65939E+00-2.81905E+01-4.49824E+01



 n o d a l   p r i n t   o u t   f o r   t i m e  s t e p     401                              ( at time 1.9997999E-01 )

 nodal point  x-rot      y-rot       z-rot       x-rot vel   y-rot vel   z-rot vel   x-rot acc   y-rot acc   z-rot acc
    22626 -2.81987E-06-3.37200E-07-3.34653E-07-3.94386E-05-1.76473E-06-2.28491E-06-3.35724E-04-7.94863E-06-1.35794E-05



 n o d a l   p r i n t   o u t   f o r   t i m e  s t e p     601                              ( at time 2.9996998E-01 )

 nodal point  x-disp     y-disp      z-disp      x-vel       y-vel       z-vel      x-accl      y-accl      z-accl      x-coor      y-coor      z-coor
    22626  2.73598E-05 1.24010E-03-2.33844E-03 4.21934E-04 8.45151E-03-1.92551E-02 3.91307E-03 6.39898E-03-7.10051E-02 4.65940E+00-2.81896E+01-4.49841E+01



 n o d a l   p r i n t   o u t   f o r   t i m e  s t e p     601                              ( at time 2.9996998E-01 )

 nodal point  x-rot      y-rot       z-rot       x-rot vel   y-rot vel   z-rot vel   x-rot acc   y-rot acc   z-rot acc
    22626 -5.38457E-06-3.90484E-07-6.42420E-07-1.53465E-05-5.50703E-06-6.69254E-06 2.40945E-04-3.74267E-05-4.40807E-05



 n o d a l   p r i n t   o u t   f o r   t i m e  s t e p     801                              ( at time 3.9995997E-01 )

 nodal point  x-disp     y-disp      z-disp      x-vel       y-vel       z-vel      x-accl      y-accl      z-accl      x-coor      y-coor      z-coor
    22626  2.60479E-05 2.16245E-03-4.28282E-03-3.14325E-04 1.07391E-02-2.10898E-02-7.36332E-03 2.28783E-02-1.83493E-02 4.65940E+00-2.81887E+01-4.49860E+01



 n o d a l   p r i n t   o u t   f o r   t i m e  s t e p     801                              ( at time 3.9995997E-01 )

 nodal point  x-rot      y-rot       z-rot       x-rot vel   y-rot vel   z-rot vel   x-rot acc   y-rot acc   z-rot acc
    22626 -7.61571E-06-1.25032E-06-9.81565E-07-4.50256E-05-6.18459E-06-1.47300E-06-2.96821E-04-6.77628E-06 5.22007E-05



 n o d a l   p r i n t   o u t   f o r   t i m e  s t e p    1001                              ( at time 4.9994997E-01 )

 nodal point  x-disp     y-disp      z-disp      x-vel       y-vel       z-vel      x-accl      y-accl      z-accl      x-coor      y-coor      z-coor
    22626  3.69391E-06 3.43652E-03-6.74481E-03-2.41330E-04 1.41508E-02-2.87066E-02 7.30022E-04 3.41200E-02-7.61751E-02 4.65938E+00-2.81874E+01-4.49885E+01



 n o d a l   p r i n t   o u t   f o r   t i m e  s t e p    1001                              ( at time 4.9994997E-01 )

 nodal point  x-rot      y-rot       z-rot       x-rot vel   y-rot vel   z-rot vel   x-rot acc   y-rot acc   z-rot acc
    22626 -1.35611E-05-1.16587E-06-9.49754E-07-8.41970E-05 3.17822E-06 4.12552E-06-3.91753E-04 9.36375E-05 5.59908E-05



 n o d a l   p r i n t   o u t   f o r   t i m e  s t e p    1201                              ( at time 5.9993996E-01 )

 nodal point  x-disp     y-disp      z-disp      x-vel       y-vel       z-vel      x-accl      y-accl      z-accl      x-coor      y-coor      z-coor
    22626 -8.86362E-07 5.01224E-03-9.71613E-03 4.56371E-05 1.67035E-02-3.09899E-02 2.86996E-03 2.55297E-02-2.28355E-02 4.65937E+00-2.81858E+01-4.49914E+01



 n o d a l   p r i n t   o u t   f o r   t i m e  s t e p    1201                              ( at time 5.9993996E-01 )

 nodal point  x-rot      y-rot       z-rot       x-rot vel   y-rot vel   z-rot vel   x-rot acc   y-rot acc   z-rot acc
    22626 -2.02871E-05-8.87070E-07-9.58048E-07-5.90476E-05 3.88628E-06-2.02048E-06 2.51519E-04 7.08131E-06-6.14662E-05



 n o d a l   p r i n t   o u t   f o r   t i m e  s t e p    1401                              ( at time 6.9992995E-01 )

 nodal point  x-disp     y-disp      z-disp      x-vel       y-vel       z-vel      x-accl      y-accl      z-accl      x-coor      y-coor      z-coor
    22626 -5.09629E-05 6.85039E-03-1.31710E-02-4.89687E-04 1.96565E-02-3.89695E-02-5.35378E-03 2.95329E-02-7.98045E-02 4.65932E+00-2.81840E+01-4.49949E+01



 n o d a l   p r i n t   o u t   f o r   t i m e  s t e p    1401                              ( at time 6.9992995E-01 )

 nodal point  x-rot      y-rot       z-rot       x-rot vel   y-rot vel   z-rot vel   x-rot acc   y-rot acc   z-rot acc
    22626 -2.62102E-05-9.01113E-07-6.32461E-07-7.10819E-05 3.31880E-07 3.80177E-06-1.20355E-04-3.55475E-05 5.82284E-05



 n o d a l   p r i n t   o u t   f o r   t i m e  s t e p    1601                              ( at time 7.9991994E-01 )

 nodal point  x-disp     y-disp      z-disp      x-vel       y-vel       z-vel      x-accl      y-accl      z-accl      x-coor      y-coor      z-coor
    22626 -8.02908E-05 8.98672E-03-1.74643E-02-4.97707E-04 2.21606E-02-4.51173E-02-8.02007E-05 2.50443E-02-6.14839E-02 4.65929E+00-2.81818E+01-4.49992E+01



 n o d a l   p r i n t   o u t   f o r   t i m e  s t e p    1601                              ( at time 7.9991994E-01 )

 nodal point  x-rot      y-rot       z-rot       x-rot vel   y-rot vel   z-rot vel   x-rot acc   y-rot acc   z-rot acc
    22626 -3.43997E-05-8.78451E-07-5.14603E-07-9.19220E-05-4.88639E-06 1.59864E-06-2.08421E-04-5.21880E-05-2.20335E-05



 n o d a l   p r i n t   o u t   f o r   t i m e  s t e p    1801                              ( at time 8.9990994E-01 )

 nodal point  x-disp     y-disp      z-disp      x-vel       y-vel       z-vel      x-accl      y-accl      z-accl      x-coor      y-coor      z-coor
    22626 -1.16877E-04 1.12542E-02-2.19905E-02-2.87276E-04 2.40410E-02-4.55886E-02 2.10452E-03 1.88054E-02-4.71319E-03 4.65926E+00-2.81796E+01-4.50037E+01



 n o d a l   p r i n t   o u t   f o r   t i m e  s t e p    1801                              ( at time 8.9990994E-01 )

 nodal point  x-rot      y-rot       z-rot       x-rot vel   y-rot vel   z-rot vel   x-rot acc   y-rot acc   z-rot acc
    22626 -4.28182E-05-9.58145E-07-5.02093E-07-8.25634E-05 1.98189E-06-7.00829E-07 9.35950E-05 6.86897E-05-2.29970E-05



 n o d a l   p r i n t   o u t   f o r   t i m e  s t e p    2001                              ( at time 9.9989993E-01 )

 nodal point  x-disp     y-disp      z-disp      x-vel       y-vel       z-vel      x-accl      y-accl      z-accl      x-coor      y-coor      z-coor
    22626 -1.52013E-04 1.37913E-02-2.67304E-02-3.60576E-05 2.65008E-02-5.00389E-02 2.51243E-03 2.46004E-02-4.45080E-02 4.65922E+00-2.81770E+01-4.50084E+01



 n o d a l   p r i n t   o u t   f o r   t i m e  s t e p    2001                              ( at time 9.9989993E-01 )

 nodal point  x-rot      y-rot       z-rot       x-rot vel   y-rot vel   z-rot vel   x-rot acc   y-rot acc   z-rot acc
    22626 -5.18499E-05-9.08824E-07-4.37823E-07-1.06333E-04 1.22850E-06-3.03821E-06-2.37719E-04-7.53458E-06-2.33762E-05



 n o d a l   p r i n t   o u t   f o r   t i m e  s t e p    2201                              ( at time 1.0998899E+00 )

 nodal point  x-disp     y-disp      z-disp      x-vel       y-vel       z-vel      x-accl      y-accl      z-accl      x-coor      y-coor      z-coor
    22626 -1.59835E-04 1.65321E-02-3.20558E-02-3.43900E-04 2.88825E-02-5.60754E-02-3.07873E-03 2.38189E-02-6.03704E-02 4.65921E+00-2.81743E+01-4.50138E+01



 n o d a l   p r i n t   o u t   f o r   t i m e  s t e p    2201                              ( at time 1.0998899E+00 )

 nodal point  x-rot      y-rot       z-rot       x-rot vel   y-rot vel   z-rot vel   x-rot acc   y-rot acc   z-rot acc
    22626 -6.29453E-05-1.00511E-06-7.49057E-07-1.03602E-04-7.62338E-06-2.01817E-06 2.73133E-05-8.85277E-05 1.02015E-05



 n o d a l   p r i n t   o u t   f o r   t i m e  s t e p    2401                              ( at time 1.1998799E+00 )

 nodal point  x-disp     y-disp      z-disp      x-vel       y-vel       z-vel      x-accl      y-accl      z-accl      x-coor      y-coor      z-coor
    22626 -1.89768E-04 1.94753E-02-3.79327E-02-1.95006E-04 3.02227E-02-6.12109E-02 1.48909E-03 1.34036E-02-5.13605E-02 4.65919E+00-2.81714E+01-4.50197E+01



 n o d a l   p r i n t   o u t   f o r   t i m e  s t e p    2401                              ( at time 1.1998799E+00 )

 nodal point  x-rot      y-rot       z-rot       x-rot vel   y-rot vel   z-rot vel   x-rot acc   y-rot acc   z-rot acc
    22626 -7.29521E-05-1.61500E-06-9.90763E-07-1.01435E-04-7.15102E-06-3.03721E-06 2.16704E-05 4.72409E-06-1.01914E-05



 n o d a l   p r i n t   o u t   f o r   t i m e  s t e p    2601                              ( at time 1.2998699E+00 )

 nodal point  x-disp     y-disp      z-disp      x-vel       y-vel       z-vel      x-accl      y-accl      z-accl      x-coor      y-coor      z-coor
    22626 -2.23823E-04 2.26250E-02-4.42079E-02-2.49674E-04 3.26000E-02-6.40518E-02-5.46739E-04 2.37760E-02-2.84113E-02 4.65915E+00-2.81682E+01-4.50259E+01



 n o d a l   p r i n t   o u t   f o r   t i m e  s t e p    2601                              ( at time 1.2998699E+00 )

 nodal point  x-rot      y-rot       z-rot       x-rot vel   y-rot vel   z-rot vel   x-rot acc   y-rot acc   z-rot acc
    22626 -8.39946E-05-2.17175E-06-1.24608E-06-1.29326E-04-1.38882E-08-1.40795E-06-2.78933E-04 7.13784E-05 1.62942E-05



 n o d a l   p r i n t   o u t   f o r   t i m e  s t e p    2801                              ( at time 1.3998599E+00 )

 nodal point  x-disp     y-disp      z-disp      x-vel       y-vel       z-vel      x-accl      y-accl      z-accl      x-coor      y-coor      z-coor
    22626 -2.51505E-04 2.59924E-02-5.07121E-02-4.47806E-04 3.45165E-02-6.66702E-02-1.98152E-03 1.91664E-02-2.61867E-02 4.65912E+00-2.81648E+01-4.50324E+01



 n o d a l   p r i n t   o u t   f o r   t i m e  s t e p    2801                              ( at time 1.3998599E+00 )

 nodal point  x-rot      y-rot       z-rot       x-rot vel   y-rot vel   z-rot vel   x-rot acc   y-rot acc   z-rot acc
    22626 -9.73980E-05-2.01194E-06-1.34409E-06-1.36882E-04-2.41938E-07 1.73190E-06-7.55668E-05-2.28073E-06 3.14017E-05



 n o d a l   p r i n t   o u t   f o r   t i m e  s t e p    3001                              ( at time 1.4998499E+00 )

 nodal point  x-disp     y-disp      z-disp      x-vel       y-vel       z-vel      x-accl      y-accl      z-accl      x-coor      y-coor      z-coor
    22626 -2.96324E-04 2.95911E-02-5.77242E-02-4.47923E-04 3.72839E-02-7.39896E-02-1.16281E-06 2.76767E-02-7.32017E-02 4.65908E+00-2.81612E+01-4.50394E+01



 n o d a l   p r i n t   o u t   f o r   t i m e  s t e p    3001                              ( at time 1.4998499E+00 )

 nodal point  x-rot      y-rot       z-rot       x-rot vel   y-rot vel   z-rot vel   x-rot acc   y-rot acc   z-rot acc
    22626 -1.10708E-04-2.03198E-06-1.27024E-06-1.28709E-04-1.01215E-06-1.79971E-06 8.17371E-05-7.70284E-06-3.53196E-05



 n o d a l   p r i n t   o u t   f o r   t i m e  s t e p    3201                              ( at time 1.5998399E+00 )

 nodal point  x-disp     y-disp      z-disp      x-vel       y-vel       z-vel      x-accl      y-accl      z-accl      x-coor      y-coor      z-coor
    22626 -3.60070E-04 3.34891E-02-6.54464E-02-5.86053E-04 4.05456E-02-7.97002E-02-1.38144E-03 3.26204E-02-5.71117E-02 4.65901E+00-2.81573E+01-4.50472E+01



 n o d a l   p r i n t   o u t   f o r   t i m e  s t e p    3201                              ( at time 1.5998399E+00 )

 nodal point  x-rot      y-rot       z-rot       x-rot vel   y-rot vel   z-rot vel   x-rot acc   y-rot acc   z-rot acc
    22626 -1.23312E-04-2.14913E-06-1.09732E-06-1.34737E-04-2.97065E-06 3.18608E-06-6.02914E-05-1.95870E-05 4.98629E-05



 n o d a l   p r i n t   o u t   f o r   t i m e  s t e p    3401                              ( at time 1.6998299E+00 )

 nodal point  x-disp     y-disp      z-disp      x-vel       y-vel       z-vel      x-accl      y-accl      z-accl      x-coor      y-coor      z-coor
    22626 -4.21649E-04 3.76415E-02-7.35822E-02-7.20675E-04 4.22276E-02-8.25906E-02-1.34636E-03 1.68220E-02-2.89066E-02 4.65895E+00-2.81532E+01-4.50553E+01



 n o d a l   p r i n t   o u t   f o r   t i m e  s t e p    3401                              ( at time 1.6998299E+00 )

 nodal point  x-rot      y-rot       z-rot       x-rot vel   y-rot vel   z-rot vel   x-rot acc   y-rot acc   z-rot acc
    22626 -1.37613E-04-2.15489E-06-9.09959E-07-1.47918E-04 1.48202E-06 3.77486E-06-1.31822E-04 4.45311E-05 5.88841E-06



 n o d a l   p r i n t   o u t   f o r   t i m e  s t e p    3601                              ( at time 1.7998199E+00 )

 nodal point  x-disp     y-disp      z-disp      x-vel       y-vel       z-vel      x-accl      y-accl      z-accl      x-coor      y-coor      z-coor
    22626 -4.86853E-04 4.18962E-02-8.19562E-02-5.63964E-04 4.32071E-02-8.47957E-02 1.56727E-03 9.79590E-03-2.20534E-02 4.65889E+00-2.81489E+01-4.50637E+01



 n o d a l   p r i n t   o u t   f o r   t i m e  s t e p    3601                              ( at time 1.7998199E+00 )

 nodal point  x-rot      y-rot       z-rot       x-rot vel   y-rot vel   z-rot vel   x-rot acc   y-rot acc   z-rot acc
    22626 -1.52871E-04-2.08248E-06-8.25169E-07-1.50628E-04 1.31946E-06-2.10462E-06-2.71019E-05-1.62575E-06-5.88007E-05



 n o d a l   p r i n t   o u t   f o r   t i m e  s t e p    3801                              ( at time 1.8998099E+00 )

 nodal point  x-disp     y-disp      z-disp      x-vel       y-vel       z-vel      x-accl      y-accl      z-accl      x-coor      y-coor      z-coor
    22626 -5.50477E-04 4.63638E-02-9.06233E-02-5.80422E-04 4.59462E-02-8.87365E-02-1.64595E-04 2.73938E-02-3.94124E-02 4.65882E+00-2.81445E+01-4.50723E+01



 n o d a l   p r i n t   o u t   f o r   t i m e  s t e p    3801                              ( at time 1.8998099E+00 )

 nodal point  x-rot      y-rot       z-rot       x-rot vel   y-rot vel   z-rot vel   x-rot acc   y-rot acc   z-rot acc
    22626 -1.67835E-04-1.90303E-06-7.93901E-07-1.51413E-04-1.74988E-06-1.73245E-06-7.84820E-06-3.06964E-05 3.72200E-06



 n o d a l   p r i n t   o u t   f o r   t i m e  s t e p    4001                              ( at time 1.9997999E+00 )

 nodal point  x-disp     y-disp      z-disp      x-vel       y-vel       z-vel      x-accl      y-accl      z-accl      x-coor      y-coor      z-coor
    22626 -6.08649E-04 5.09953E-02-9.97114E-02-6.14015E-04 4.69349E-02-9.28254E-02-3.35967E-04 9.88817E-03-4.08927E-02 4.65877E+00-2.81398E+01-4.50814E+01



 n o d a l   p r i n t   o u t   f o r   t i m e  s t e p    4001                              ( at time 1.9997999E+00 )

 nodal point  x-rot      y-rot       z-rot       x-rot vel   y-rot vel   z-rot vel   x-rot acc   y-rot acc   z-rot acc
    22626 -1.83137E-04-2.17693E-06-9.81131E-07-1.59568E-04-4.97689E-06-1.92043E-06-8.15614E-05-3.22733E-05-1.87996E-06



 n o d a l   p r i n t   o u t   f o r   t i m e  s t e p    4201                              ( at time 2.0997899E+00 )

 nodal point  x-disp     y-disp      z-disp      x-vel       y-vel       z-vel      x-accl      y-accl      z-accl      x-coor      y-coor      z-coor
    22626 -6.69593E-04 5.57194E-02-1.09085E-01-6.15097E-04 4.77635E-02-9.47143E-02-1.08201E-05 8.28651E-03-1.88904E-02 4.65871E+00-2.81351E+01-4.50908E+01



 n o d a l   p r i n t   o u t   f o r   t i m e  s t e p    4201                              ( at time 2.0997899E+00 )

 nodal point  x-rot      y-rot       z-rot       x-rot vel   y-rot vel   z-rot vel   x-rot acc   y-rot acc   z-rot acc
    22626 -1.98722E-04-2.70464E-06-1.37483E-06-1.55810E-04-3.92535E-06-3.13677E-07 3.75854E-05 1.05164E-05 1.60691E-05



 n o d a l   p r i n t   o u t   f o r   t i m e  s t e p    4401                              ( at time 2.1997798E+00 )

 nodal point  x-disp     y-disp      z-disp      x-vel       y-vel       z-vel      x-accl      y-accl      z-accl      x-coor      y-coor      z-coor
    22626 -7.25079E-04 6.05514E-02-1.18607E-01-4.29942E-04 4.85502E-02-9.58180E-02 1.85174E-03 7.86749E-03-1.10386E-02 4.65865E+00-2.81303E+01-4.51003E+01



 n o d a l   p r i n t   o u t   f o r   t i m e  s t e p    4401                              ( at time 2.1997798E+00 )

 nodal point  x-rot      y-rot       z-rot       x-rot vel   y-rot vel   z-rot vel   x-rot acc   y-rot acc   z-rot acc
    22626 -2.14761E-04-3.08065E-06-1.73117E-06-1.67689E-04-4.48059E-06-5.70481E-06-1.18800E-04-5.55292E-06-5.39168E-05



 n o d a l   p r i n t   o u t   f o r   t i m e  s t e p    4601                              ( at time 2.2997698E+00 )

 nodal point  x-disp     y-disp      z-disp      x-vel       y-vel       z-vel      x-accl      y-accl      z-accl      x-coor      y-coor      z-coor
    22626 -7.77128E-04 6.54259E-02-1.28249E-01-6.08017E-04 4.93791E-02-9.74872E-02-1.78093E-03 8.29037E-03-1.66935E-02 4.65860E+00-2.81254E+01-4.51100E+01



 n o d a l   p r i n t   o u t   f o r   t i m e  s t e p    4601                              ( at time 2.2997698E+00 )

 nodal point  x-rot      y-rot       z-rot       x-rot vel   y-rot vel   z-rot vel   x-rot acc   y-rot acc   z-rot acc
    22626 -2.32213E-04-3.34218E-06-2.20348E-06-1.73183E-04-2.98303E-06-6.06042E-06-5.49485E-05 1.49770E-05-3.55648E-06



 n o d a l   p r i n t   o u t   f o r   t i m e  s t e p    4801                              ( at time 2.3997598E+00 )

 nodal point  x-disp     y-disp      z-disp      x-vel       y-vel       z-vel      x-accl      y-accl      z-accl      x-coor      y-coor      z-coor
    22626 -8.47528E-04 7.04544E-02-1.38201E-01-7.45248E-04 5.09082E-02-1.01543E-01-1.37245E-03 1.52919E-02-4.05629E-02 4.65853E+00-2.81204E+01-4.51199E+01



 n o d a l   p r i n t   o u t   f o r   t i m e  s t e p    4801                              ( at time 2.3997598E+00 )

 nodal point  x-rot      y-rot       z-rot       x-rot vel   y-rot vel   z-rot vel   x-rot acc   y-rot acc   z-rot acc
    22626 -2.49250E-04-3.77701E-06-2.58669E-06-1.70539E-04-5.68162E-06-3.53780E-06 2.64403E-05-2.69887E-05 2.52287E-05



 n o d a l   p r i n t   o u t   f o r   t i m e  s t e p    5001                              ( at time 2.4997498E+00 )

 nodal point  x-disp     y-disp      z-disp      x-vel       y-vel       z-vel      x-accl      y-accl      z-accl      x-coor      y-coor      z-coor
    22626 -9.26123E-04 7.56307E-02-1.48516E-01-8.20124E-04 5.21155E-02-1.04034E-01-7.48830E-04 1.20747E-02-2.49115E-02 4.65845E+00-2.81152E+01-4.51302E+01



 n o d a l   p r i n t   o u t   f o r   t i m e  s t e p    5001                              ( at time 2.4997498E+00 )

 nodal point  x-rot      y-rot       z-rot       x-rot vel   y-rot vel   z-rot vel   x-rot acc   y-rot acc   z-rot acc
    22626 -2.66457E-04-4.14267E-06-3.11035E-06-1.73527E-04-3.88001E-06-3.71440E-06-2.98793E-05 1.80179E-05-1.76617E-06



 n o d a l   p r i n t   o u t   f o r   t i m e  s t e p    5201                              ( at time 2.5997398E+00 )

 nodal point  x-disp     y-disp      z-disp      x-vel       y-vel       z-vel      x-accl      y-accl      z-accl      x-coor      y-coor      z-coor
    22626 -1.00268E-03 8.08423E-02-1.58901E-01-7.78918E-04 5.20163E-02-1.03608E-01 4.12100E-04-9.92816E-04 4.25732E-03 4.65837E+00-2.81100E+01-4.51406E+01



 n o d a l   p r i n t   o u t   f o r   t i m e  s t e p    5201                              ( at time 2.5997398E+00 )

 nodal point  x-rot      y-rot       z-rot       x-rot vel   y-rot vel   z-rot vel   x-rot acc   y-rot acc   z-rot acc
    22626 -2.83778E-04-4.42555E-06-3.56660E-06-1.71246E-04-1.59174E-06-4.47176E-06 2.28137E-05 2.28850E-05-7.57429E-06



 n o d a l   p r i n t   o u t   f o r   t i m e  s t e p    5401                              ( at time 2.6997298E+00 )

 nodal point  x-disp     y-disp      z-disp      x-vel       y-vel       z-vel      x-accl      y-accl      z-accl      x-coor      y-coor      z-coor
    22626 -1.07724E-03 8.60164E-02-1.69242E-01-6.09810E-04 5.18367E-02-1.03384E-01 1.69124E-03-1.79595E-03 2.24046E-03 4.65830E+00-2.81048E+01-4.51510E+01



 n o d a l   p r i n t   o u t   f o r   t i m e  s t e p    5401                              ( at time 2.6997298E+00 )

 nodal point  x-rot      y-rot       z-rot       x-rot vel   y-rot vel   z-rot vel   x-rot acc   y-rot acc   z-rot acc
    22626 -3.01663E-04-4.69856E-06-4.07234E-06-1.85049E-04-1.89514E-06-6.18180E-06-1.38048E-04-3.03429E-06-1.71021E-05



 n o d a l   p r i n t   o u t   f o r   t i m e  s t e p    5601                              ( at time 2.7997198E+00 )

 nodal point  x-disp     y-disp      z-disp      x-vel       y-vel       z-vel      x-accl      y-accl      z-accl      x-coor      y-coor      z-coor
    22626 -1.13734E-03 9.12259E-02-1.79619E-01-4.38599E-04 5.23565E-02-1.04286E-01 1.71229E-03 5.19868E-03-9.02289E-03 4.65824E+00-2.80996E+01-4.51613E+01



 n o d a l   p r i n t   o u t   f o r   t i m e  s t e p    5601                              ( at time 2.7997198E+00 )

 nodal point  x-rot      y-rot       z-rot       x-rot vel   y-rot vel   z-rot vel   x-rot acc   y-rot acc   z-rot acc
    22626 -3.19645E-04-5.03723E-06-4.77331E-06-1.70896E-04-5.35354E-06-7.22540E-06 1.41548E-04-3.45875E-05-1.04371E-05



 n o d a l   p r i n t   o u t   f o r   t i m e  s t e p    5801                              ( at time 2.8997098E+00 )

 nodal point  x-disp     y-disp      z-disp      x-vel       y-vel       z-vel      x-accl      y-accl      z-accl      x-coor      y-coor      z-coor
    22626 -1.17922E-03 9.64416E-02-1.90139E-01-4.85047E-04 5.21413E-02-1.06065E-01-4.64531E-04-2.15250E-03-1.77852E-02 4.65820E+00-2.80944E+01-4.51719E+01



 n o d a l   p r i n t   o u t   f o r   t i m e  s t e p    5801                              ( at time 2.8997098E+00 )

 nodal point  x-rot      y-rot       z-rot       x-rot vel   y-rot vel   z-rot vel   x-rot acc   y-rot acc   z-rot acc
    22626 -3.36260E-04-5.64433E-06-5.61761E-06-1.70770E-04-7.50880E-06-8.37824E-06 1.25494E-06-2.15548E-05-1.15296E-05



 n o d a l   p r i n t   o u t   f o r   t i m e  s t e p    6001                              ( at time 2.9996998E+00 )

 nodal point  x-disp     y-disp      z-disp      x-vel       y-vel       z-vel      x-accl      y-accl      z-accl      x-coor      y-coor      z-coor
    22626 -1.24252E-03 1.01610E-01-2.00744E-01-4.25245E-04 5.12759E-02-1.05656E-01 5.98082E-04-8.65407E-03 4.08638E-03 4.65813E+00-2.80892E+01-4.51825E+01



 n o d a l   p r i n t   o u t   f o r   t i m e  s t e p    6001                              ( at time 2.9996998E+00 )

 nodal point  x-rot      y-rot       z-rot       x-rot vel   y-rot vel   z-rot vel   x-rot acc   y-rot acc   z-rot acc
    22626 -3.53967E-04-6.31292E-06-6.53770E-06-1.82520E-04-8.28864E-06-9.88240E-06-1.17513E-04-7.79911E-06-1.50431E-05



 n o d a l   p r i n t   o u t   f o r   t i m e  s t e p    6201                              ( at time 3.0996898E+00 )

 nodal point  x-disp     y-disp      z-disp      x-vel       y-vel       z-vel      x-accl      y-accl      z-accl      x-coor      y-coor      z-coor
    22626 -1.27078E-03 1.06722E-01-2.11246E-01-3.43134E-04 5.10538E-02-1.04923E-01 8.21194E-04-2.22210E-03 7.32936E-03 4.65810E+00-2.80841E+01-4.51930E+01



 n o d a l   p r i n t   o u t   f o r   t i m e  s t e p    6201                              ( at time 3.0996898E+00 )

 nodal point  x-rot      y-rot       z-rot       x-rot vel   y-rot vel   z-rot vel   x-rot acc   y-rot acc   z-rot acc
    22626 -3.72224E-04-6.99270E-06-7.39127E-06-1.82653E-04-5.09527E-06-4.30334E-06-1.32785E-06 3.19369E-05 5.57962E-05



 n o d a l   p r i n t   o u t   f o r   t i m e  s t e p    6401                              ( at time 3.1996798E+00 )

 nodal point  x-disp     y-disp      z-disp      x-vel       y-vel       z-vel      x-accl      y-accl      z-accl      x-coor      y-coor      z-coor
    22626 -1.30655E-03 1.11846E-01-2.21795E-01-3.24232E-04 5.13794E-02-1.06301E-01 1.89037E-04 3.25630E-03-1.37810E-02 4.65807E+00-2.80790E+01-4.52035E+01



 n o d a l   p r i n t   o u t   f o r   t i m e  s t e p    6401                              ( at time 3.1996798E+00 )

 nodal point  x-rot      y-rot       z-rot       x-rot vel   y-rot vel   z-rot vel   x-rot acc   y-rot acc   z-rot acc
    22626 -3.90506E-04-7.55544E-06-8.19183E-06-1.78349E-04-5.63225E-06-7.79663E-06 4.30501E-05-5.37036E-06-3.49363E-05



 n o d a l   p r i n t   o u t   f o r   t i m e  s t e p    6601                              ( at time 3.2996698E+00 )

 nodal point  x-disp     y-disp      z-disp      x-vel       y-vel       z-vel      x-accl      y-accl      z-accl      x-coor      y-coor      z-coor
    22626 -1.36072E-03 1.17000E-01-2.32527E-01-6.96723E-04 5.16617E-02-1.08018E-01-3.72529E-03 2.82346E-03-1.71641E-02 4.65801E+00-2.80738E+01-4.52142E+01



 n o d a l   p r i n t   o u t   f o r   t i m e  s t e p    6601                              ( at time 3.2996698E+00 )

 nodal point  x-rot      y-rot       z-rot       x-rot vel   y-rot vel   z-rot vel   x-rot acc   y-rot acc   z-rot acc
    22626 -4.08271E-04-7.90662E-06-8.79618E-06-1.76626E-04-6.60007E-07-6.49553E-06 1.72296E-05 4.97275E-05 1.30124E-05



 n o d a l   p r i n t   o u t   f o r   t i m e  s t e p    6801                              ( at time 3.3996598E+00 )

 nodal point  x-disp     y-disp      z-disp      x-vel       y-vel       z-vel      x-accl      y-accl      z-accl      x-coor      y-coor      z-coor
    22626 -1.43597E-03 1.22152E-01-2.43336E-01-9.02137E-04 5.12431E-02-1.08115E-01-2.05434E-03-4.18596E-03-9.70683E-04 4.65794E+00-2.80687E+01-4.52251E+01



 n o d a l   p r i n t   o u t   f o r   t i m e  s t e p    6801                              ( at time 3.3996598E+00 )

 nodal point  x-rot      y-rot       z-rot       x-rot vel   y-rot vel   z-rot vel   x-rot acc   y-rot acc   z-rot acc
    22626 -4.25639E-04-7.97456E-06-9.28445E-06-1.75219E-04-1.82894E-06-3.45372E-06 1.40651E-05-1.16905E-05 3.04211E-05



 n o d a l   p r i n t   o u t   f o r   t i m e  s t e p    7001                              ( at time 3.4996498E+00 )

 nodal point  x-disp     y-disp      z-disp      x-vel       y-vel       z-vel      x-accl      y-accl      z-accl      x-coor      y-coor      z-coor
    22626 -1.52273E-03 1.27212E-01-2.54061E-01-8.92727E-04 5.01327E-02-1.06419E-01 9.41022E-05-1.11056E-02 1.69536E-02 4.65785E+00-2.80636E+01-4.52358E+01



 n o d a l   p r i n t   o u t   f o r   t i m e  s t e p    7001                              ( at time 3.4996498E+00 )

 nodal point  x-rot      y-rot       z-rot       x-rot vel   y-rot vel   z-rot vel   x-rot acc   y-rot acc   z-rot acc
    22626 -4.43589E-04-8.01175E-06-9.57175E-06-1.75432E-04 3.12327E-06-2.99171E-06-2.12829E-06 4.95272E-05 4.62058E-06



 n o d a l   p r i n t   o u t   f o r   t i m e  s t e p    7201                              ( at time 3.5996397E+00 )

 nodal point  x-disp     y-disp      z-disp      x-vel       y-vel       z-vel      x-accl      y-accl      z-accl      x-coor      y-coor      z-coor
    22626 -1.61304E-03 1.32180E-01-2.64646E-01-9.19261E-04 4.90597E-02-1.05528E-01-2.65360E-04-1.07309E-02 8.91507E-03 4.65776E+00-2.80586E+01-4.52464E+01



 n o d a l   p r i n t   o u t   f o r   t i m e  s t e p    7201                              ( at time 3.5996397E+00 )

 nodal point  x-rot      y-rot       z-rot       x-rot vel   y-rot vel   z-rot vel   x-rot acc   y-rot acc   z-rot acc
    22626 -4.61087E-04-7.82643E-06-1.00224E-05-1.75758E-04 1.23890E-07-9.76599E-06-3.25909E-06-2.99969E-05-6.77497E-05



 n o d a l   p r i n t   o u t   f o r   t i m e  s t e p    7401                              ( at time 3.6996297E+00 )

 nodal point  x-disp     y-disp      z-disp      x-vel       y-vel       z-vel      x-accl      y-accl      z-accl      x-coor      y-coor      z-coor
    22626 -1.69548E-03 1.37032E-01-2.75181E-01-6.41738E-04 4.80504E-02-1.05126E-01 2.77550E-03-1.00943E-02 4.01574E-03 4.65768E+00-2.80538E+01-4.52569E+01



 n o d a l   p r i n t   o u t   f o r   t i m e  s t e p    7401                              ( at time 3.6996297E+00 )

 nodal point  x-rot      y-rot       z-rot       x-rot vel   y-rot vel   z-rot vel   x-rot acc   y-rot acc   z-rot acc
    22626 -4.78510E-04-7.72724E-06-1.06523E-05-1.73394E-04 2.81102E-06-5.54621E-06 2.36473E-05 2.68740E-05 4.22020E-05



 n o d a l   p r i n t   o u t   f o r   t i m e  s t e p    7601                              ( at time 3.7996197E+00 )

 nodal point  x-disp     y-disp      z-disp      x-vel       y-vel       z-vel      x-accl      y-accl      z-accl      x-coor      y-coor      z-coor
    22626 -1.77284E-03 1.41752E-01-2.85656E-01-8.84754E-04 4.64916E-02-1.04452E-01-2.43041E-03-1.55889E-02 6.74748E-03 4.65760E+00-2.80491E+01-4.52674E+01



 n o d a l   p r i n t   o u t   f o r   t i m e  s t e p    7601                              ( at time 3.7996197E+00 )

 nodal point  x-rot      y-rot       z-rot       x-rot vel   y-rot vel   z-rot vel   x-rot acc   y-rot acc   z-rot acc
    22626 -4.95403E-04-7.65909E-06-1.11665E-05-1.70959E-04-2.39239E-06-7.36744E-06 2.43480E-05-5.20394E-05-1.82142E-05



 n o d a l   p r i n t   o u t   f o r   t i m e  s t e p    7801                              ( at time 3.8996097E+00 )

 nodal point  x-disp     y-disp      z-disp      x-vel       y-vel       z-vel      x-accl      y-accl      z-accl      x-coor      y-coor      z-coor
    22626 -1.85149E-03 1.46372E-01-2.96004E-01-5.15448E-04 4.54240E-02-1.02626E-01 3.69343E-03-1.06772E-02 1.82639E-02 4.65752E+00-2.80445E+01-4.52777E+01



 n o d a l   p r i n t   o u t   f o r   t i m e  s t e p    7801                              ( at time 3.8996097E+00 )

 nodal point  x-rot      y-rot       z-rot       x-rot vel   y-rot vel   z-rot vel   x-rot acc   y-rot acc   z-rot acc
    22626 -5.12231E-04-8.27962E-06-1.22569E-05-1.73681E-04-7.07334E-06-1.20411E-05-2.72226E-05-4.68141E-05-4.67407E-05



 n o d a l   p r i n t   o u t   f o r   t i m e  s t e p    8001                              ( at time 3.9995997E+00 )

 nodal point  x-disp     y-disp      z-disp      x-vel       y-vel       z-vel      x-accl      y-accl      z-accl      x-coor      y-coor      z-coor
    22626 -1.87101E-03 1.50852E-01-3.06102E-01-1.31658E-05 4.43112E-02-9.97550E-02 5.02333E-03-1.11297E-02 2.87083E-02 4.65750E+00-2.80400E+01-4.52878E+01



 n o d a l   p r i n t   o u t   f o r   t i m e  s t e p    8001                              ( at time 3.9995997E+00 )

 nodal point  x-rot      y-rot       z-rot       x-rot vel   y-rot vel   z-rot vel   x-rot acc   y-rot acc   z-rot acc
    22626 -5.29806E-04-8.72343E-06-1.31069E-05-1.67439E-04-3.18449E-08-5.16376E-06 6.24307E-05 7.04221E-05 6.87799E-05



 n o d a l   p r i n t   o u t   f o r   t i m e  s t e p    8201                              ( at time 4.0995897E+00 )

 nodal point  x-disp     y-disp      z-disp      x-vel       y-vel       z-vel      x-accl      y-accl      z-accl      x-coor      y-coor      z-coor
    22626 -1.88105E-03 1.55293E-01-3.16059E-01-5.41847E-05 4.42415E-02-9.93144E-02-4.10229E-04-6.97108E-04 4.40648E-03 4.65749E+00-2.80355E+01-4.52978E+01



 n o d a l   p r i n t   o u t   f o r   t i m e  s t e p    8201                              ( at time 4.0995897E+00 )

 nodal point  x-rot      y-rot       z-rot       x-rot vel   y-rot vel   z-rot vel   x-rot acc   y-rot acc   z-rot acc
    22626 -5.46214E-04-8.91331E-06-1.36299E-05-1.50819E-04-5.68197E-06-6.14046E-06 1.66217E-04-5.65068E-05-9.76790E-06



 n o d a l   p r i n t   o u t   f o r   t i m e  s t e p    8401                              ( at time 4.1995797E+00 )

 nodal point  x-disp     y-disp      z-disp      x-vel       y-vel       z-vel      x-accl      y-accl      z-accl      x-coor      y-coor      z-coor
    22626 -1.90027E-03 1.59741E-01-3.25981E-01-6.47453E-04 4.48778E-02-9.86553E-02-5.93328E-03 6.36456E-03 6.59212E-03 4.65747E+00-2.80311E+01-4.53077E+01



 n o d a l   p r i n t   o u t   f o r   t i m e  s t e p    8401                              ( at time 4.1995797E+00 )

 nodal point  x-rot      y-rot       z-rot       x-rot vel   y-rot vel   z-rot vel   x-rot acc   y-rot acc   z-rot acc
    22626 -5.61597E-04-9.67142E-06-1.49241E-05-1.49975E-04-6.70101E-06-1.44384E-05 8.43500E-06-1.01914E-05-8.29879E-05



 n o d a l   p r i n t   o u t   f o r   t i m e  s t e p    8601                              ( at time 4.2995697E+00 )

 nodal point  x-disp     y-disp      z-disp      x-vel       y-vel       z-vel      x-accl      y-accl      z-accl      x-coor      y-coor      z-coor
    22626 -1.97325E-03 1.64292E-01-3.35784E-01-5.45977E-04 4.63082E-02-9.73168E-02 1.01486E-03 1.43050E-02 1.33862E-02 4.65740E+00-2.80265E+01-4.53175E+01



 n o d a l   p r i n t   o u t   f o r   t i m e  s t e p    8601                              ( at time 4.2995697E+00 )

 nodal point  x-rot      y-rot       z-rot       x-rot vel   y-rot vel   z-rot vel   x-rot acc   y-rot acc   z-rot acc
    22626 -5.76487E-04-1.00453E-05-1.61343E-05-1.47456E-04-3.05936E-06-1.19241E-05 2.51972E-05 3.64202E-05 2.51460E-05



 n o d a l   p r i n t   o u t   f o r   t i m e  s t e p    8801                              ( at time 4.3995597E+00 )

 nodal point  x-disp     y-disp      z-disp      x-vel       y-vel       z-vel      x-accl      y-accl      z-accl      x-coor      y-coor      z-coor
    22626 -2.02472E-03 1.68988E-01-3.45370E-01-5.71603E-04 4.78674E-02-9.46110E-02-2.56283E-04 1.55934E-02 2.70609E-02 4.65735E+00-2.80218E+01-4.53271E+01



 n o d a l   p r i n t   o u t   f o r   t i m e  s t e p    8801                              ( at time 4.3995597E+00 )

 nodal point  x-rot      y-rot       z-rot       x-rot vel   y-rot vel   z-rot vel   x-rot acc   y-rot acc   z-rot acc
    22626 -5.91094E-04-1.03347E-05-1.75867E-05-1.49005E-04-1.84349E-06-1.49112E-05-1.54950E-05 1.21599E-05-2.98748E-05



 n o d a l   p r i n t   o u t   f o r   t i m e  s t e p    9001                              ( at time 4.4995497E+00 )

 nodal point  x-disp     y-disp      z-disp      x-vel       y-vel       z-vel      x-accl      y-accl      z-accl      x-coor      y-coor      z-coor
    22626 -2.09228E-03 1.73967E-01-3.54754E-01-9.19512E-04 5.24785E-02-9.33266E-02-3.47943E-03 4.61154E-02 1.28456E-02 4.65728E+00-2.80169E+01-4.53365E+01



 n o d a l   p r i n t   o u t   f o r   t i m e  s t e p    9001                              ( at time 4.4995497E+00 )

 nodal point  x-rot      y-rot       z-rot       x-rot vel   y-rot vel   z-rot vel   x-rot acc   y-rot acc   z-rot acc
    22626 -6.07211E-04-1.06936E-05-1.97735E-05-1.74225E-04-1.01012E-05-2.26824E-05-2.52228E-04-8.25853E-05-7.77191E-05



 n o d a l   p r i n t   o u t   f o r   t i m e  s t e p    9201                              ( at time 4.5995397E+00 )

 nodal point  x-disp     y-disp      z-disp      x-vel       y-vel       z-vel      x-accl      y-accl      z-accl      x-coor      y-coor      z-coor
    22626 -2.17721E-03 1.79546E-01-3.64040E-01-7.02364E-04 5.96012E-02-9.20318E-02 2.17171E-03 7.12349E-02 1.29493E-02 4.65720E+00-2.80113E+01-4.53458E+01



 n o d a l   p r i n t   o u t   f o r   t i m e  s t e p    9201                              ( at time 4.5995397E+00 )

 nodal point  x-rot      y-rot       z-rot       x-rot vel   y-rot vel   z-rot vel   x-rot acc   y-rot acc   z-rot acc
    22626 -6.26129E-04-1.17632E-05-2.26144E-05-2.08154E-04-1.31970E-05-3.52414E-05-3.39317E-04-3.09610E-05-1.25603E-04



 n o d a l   p r i n t   o u t   f o r   t i m e  s t e p    9401                              ( at time 4.6995297E+00 )

 nodal point  x-disp     y-disp      z-disp      x-vel       y-vel       z-vel      x-accl      y-accl      z-accl      x-coor      y-coor      z-coor
    22626 -2.27088E-03 1.85922E-01-3.73115E-01-1.05786E-03 6.83932E-02-8.93614E-02-3.55533E-03 8.79286E-02 2.67068E-02 4.65710E+00-2.80049E+01-4.53548E+01



 n o d a l   p r i n t   o u t   f o r   t i m e  s t e p    9401                              ( at time 4.6995297E+00 )

 nodal point  x-rot      y-rot       z-rot       x-rot vel   y-rot vel   z-rot vel   x-rot acc   y-rot acc   z-rot acc
    22626 -6.50508E-04-1.30116E-05-2.60987E-05-2.79912E-04-1.05920E-05-3.58370E-05-7.17660E-04 2.60531E-05-5.95597E-06



 n o d a l   p r i n t   o u t   f o r   t i m e  s t e p    9601                              ( at time 4.7995197E+00 )

 nodal point  x-disp     y-disp      z-disp      x-vel       y-vel       z-vel      x-accl      y-accl      z-accl      x-coor      y-coor      z-coor
    22626 -2.36614E-03 1.93365E-01-3.81931E-01-1.30579E-03 8.07440E-02-8.68006E-02-2.47959E-03 1.23520E-01 2.56099E-02 4.65701E+00-2.79975E+01-4.53637E+01



 n o d a l   p r i n t   o u t   f o r   t i m e  s t e p    9601                              ( at time 4.7995197E+00 )

 nodal point  x-rot      y-rot       z-rot       x-rot vel   y-rot vel   z-rot vel   x-rot acc   y-rot acc   z-rot acc
    22626 -6.82426E-04-1.46161E-05-3.04167E-05-3.63422E-04-1.88888E-05-4.90463E-05-8.35177E-04-8.29765E-05-1.32106E-04



 n o d a l   p r i n t   o u t   f o r   t i m e  s t e p    9801                              ( at time 4.8995097E+00 )

 nodal point  x-disp     y-disp      z-disp      x-vel       y-vel       z-vel      x-accl      y-accl      z-accl      x-coor      y-coor      z-coor
    22626 -2.49877E-03 2.02165E-01-3.90418E-01-1.21710E-03 9.54471E-02-8.30600E-02 8.87050E-04 1.47046E-01 3.74102E-02 4.65688E+00-2.79887E+01-4.53721E+01



 n o d a l   p r i n t   o u t   f o r   t i m e  s t e p    9801                              ( at time 4.8995097E+00 )

 nodal point  x-rot      y-rot       z-rot       x-rot vel   y-rot vel   z-rot vel   x-rot acc   y-rot acc   z-rot acc
    22626 -7.23490E-04-1.67144E-05-3.58363E-05-4.61838E-04-1.71497E-05-5.45830E-05-9.84267E-04 1.73930E-05-5.53729E-05



 n o d a l   p r i n t   o u t   f o r   t i m e  s t e p   10001                              ( at time 4.9994997E+00 )

 nodal point  x-disp     y-disp      z-disp      x-vel       y-vel       z-vel      x-accl      y-accl      z-accl      x-coor      y-coor      z-coor
    22626 -2.62764E-03 2.12496E-01-3.98618E-01-1.17513E-03 1.12324E-01-8.11366E-02 4.19754E-04 1.68787E-01 1.92354E-02 4.65675E+00-2.79783E+01-4.53803E+01



 n o d a l   p r i n t   o u t   f o r   t i m e  s t e p   10001                              ( at time 4.9994997E+00 )

 nodal point  x-rot      y-rot       z-rot       x-rot vel   y-rot vel   z-rot vel   x-rot acc   y-rot acc   z-rot acc
    22626 -7.75626E-04-1.83976E-05-4.09921E-05-5.82647E-04-2.01319E-05-5.69042E-05-1.20820E-03-2.98256E-05-2.32141E-05



 n o d a l   p r i n t   o u t   f o r   t i m e  s t e p   10202                              ( at time 5.0999896E+00 )

 nodal point  x-disp     y-disp      z-disp      x-vel       y-vel       z-vel      x-accl      y-accl      z-accl      x-coor      y-coor      z-coor
    22626 -2.78127E-03 2.24750E-01-4.06683E-01-1.99466E-03 1.31327E-01-7.90300E-02-8.15543E-03 1.89106E-01 2.09632E-02 4.65659E+00-2.79661E+01-4.53884E+01



 n o d a l   p r i n t   o u t   f o r   t i m e  s t e p   10202                              ( at time 5.0999896E+00 )

 nodal point  x-rot      y-rot       z-rot       x-rot vel   y-rot vel   z-rot vel   x-rot acc   y-rot acc   z-rot acc
    22626 -8.41471E-04-2.04473E-05-4.74577E-05-7.25254E-04-2.05458E-05-6.72147E-05-1.41912E-03-4.11898E-06-1.02603E-04



 n o d a l   p r i n t   o u t   f o r   t i m e  s t e p   10402                              ( at time 5.1999796E+00 )

 nodal point  x-disp     y-disp      z-disp      x-vel       y-vel       z-vel      x-accl      y-accl      z-accl      x-coor      y-coor      z-coor
    22626 -2.96588E-03 2.38883E-01-4.14415E-01-1.89421E-03 1.52346E-01-7.58260E-02 1.00462E-03 2.10204E-01 3.20437E-02 4.65641E+00-2.79519E+01-4.53961E+01



 n o d a l   p r i n t   o u t   f o r   t i m e  s t e p   10402                              ( at time 5.1999796E+00 )

 nodal point  x-rot      y-rot       z-rot       x-rot vel   y-rot vel   z-rot vel   x-rot acc   y-rot acc   z-rot acc
    22626 -9.21629E-04-2.23256E-05-5.41593E-05-8.82365E-04-1.80029E-05-7.46091E-05-1.57127E-03 2.54317E-05-7.39506E-05



 n o d a l   p r i n t   o u t   f o r   t i m e  s t e p   10602                              ( at time 5.2999696E+00 )

 nodal point  x-disp     y-disp      z-disp      x-vel       y-vel       z-vel      x-accl      y-accl      z-accl      x-coor      y-coor      z-coor
    22626 -3.16999E-03 2.55292E-01-4.21805E-01-2.17783E-03 1.75526E-01-7.23052E-02-2.83649E-03 2.31828E-01 3.52110E-02 4.65621E+00-2.79355E+01-4.54035E+01



 n o d a l   p r i n t   o u t   f o r   t i m e  s t e p   10602                              ( at time 5.2999696E+00 )

 nodal point  x-rot      y-rot       z-rot       x-rot vel   y-rot vel   z-rot vel   x-rot acc   y-rot acc   z-rot acc
    22626 -1.01795E-03-2.45611E-05-6.19352E-05-1.04788E-03-2.14447E-05-8.75388E-05-1.65534E-03-3.44209E-05-1.29310E-04



 n o d a l   p r i n t   o u t   f o r   t i m e  s t e p   10802                              ( at time 5.3999596E+00 )

 nodal point  x-disp     y-disp      z-disp      x-vel       y-vel       z-vel      x-accl      y-accl      z-accl      x-coor      y-coor      z-coor
    22626 -3.42011E-03 2.74144E-01-4.28941E-01-2.86064E-03 2.02253E-01-7.08019E-02-6.82875E-03 2.67292E-01 1.50354E-02 4.65595E+00-2.79167E+01-4.54107E+01



 n o d a l   p r i n t   o u t   f o r   t i m e  s t e p   10802                              ( at time 5.3999596E+00 )

 nodal point  x-rot      y-rot       z-rot       x-rot vel   y-rot vel   z-rot vel   x-rot acc   y-rot acc   z-rot acc
    22626 -1.13181E-03-2.70393E-05-7.12185E-05-1.23529E-03-2.85103E-05-9.21711E-05-1.87429E-03-7.06635E-05-4.63276E-05



 n o d a l   p r i n t   o u t   f o r   t i m e  s t e p   11002                              ( at time 5.4999496E+00 )

 nodal point  x-disp     y-disp      z-disp      x-vel       y-vel       z-vel      x-accl      y-accl      z-accl      x-coor      y-coor      z-coor
    22626 -3.67690E-03 2.95752E-01-4.35901E-01-2.12313E-03 2.29807E-01-6.82903E-02 7.37584E-03 2.75570E-01 2.51184E-02 4.65570E+00-2.78951E+01-4.54176E+01



 n o d a l   p r i n t   o u t   f o r   t i m e  s t e p   11002                              ( at time 5.4999496E+00 )

 nodal point  x-rot      y-rot       z-rot       x-rot vel   y-rot vel   z-rot vel   x-rot acc   y-rot acc   z-rot acc
    22626 -1.26493E-03-2.95894E-05-8.04821E-05-1.43497E-03-2.41153E-05-9.06388E-05-1.99700E-03 4.39544E-05 1.53239E-05



 n o d a l   p r i n t   o u t   f o r   t i m e  s t e p   11202                              ( at time 5.5999396E+00 )

 nodal point  x-disp     y-disp      z-disp      x-vel       y-vel       z-vel      x-accl      y-accl      z-accl      x-coor      y-coor      z-coor
    22626 -3.88117E-03 3.20249E-01-4.42562E-01-1.49378E-03 2.60381E-01-6.53417E-02 6.29416E-03 3.05771E-01 2.94889E-02 4.65549E+00-2.78706E+01-4.54243E+01



 n o d a l   p r i n t   o u t   f o r   t i m e  s t e p   11202                              ( at time 5.5999396E+00 )

 nodal point  x-rot      y-rot       z-rot       x-rot vel   y-rot vel   z-rot vel   x-rot acc   y-rot acc   z-rot acc
    22626 -1.41836E-03-3.18754E-05-8.93528E-05-1.63665E-03-2.12817E-05-8.44524E-05-2.01702E-03 2.83389E-05 6.18702E-05



 n o d a l   p r i n t   o u t   f o r   t i m e  s t e p   11402                              ( at time 5.6999296E+00 )

 nodal point  x-disp     y-disp      z-disp      x-vel       y-vel       z-vel      x-accl      y-accl      z-accl      x-coor      y-coor      z-coor
    22626 -4.05968E-03 3.47834E-01-4.48968E-01-2.07588E-03 2.92081E-01-6.23566E-02-5.82158E-03 3.17032E-01 2.98538E-02 4.65532E+00-2.78430E+01-4.54307E+01



 n o d a l   p r i n t   o u t   f o r   t i m e  s t e p   11402                              ( at time 5.6999296E+00 )

 nodal point  x-rot      y-rot       z-rot       x-rot vel   y-rot vel   z-rot vel   x-rot acc   y-rot acc   z-rot acc
    22626 -1.59323E-03-3.40479E-05-9.79965E-05-1.86353E-03-2.19646E-05-8.91056E-05-2.26894E-03-6.82940E-06-4.65366E-05



 n o d a l   p r i n t   o u t   f o r   t i m e  s t e p   11602                              ( at time 5.7999195E+00 )

 nodal point  x-disp     y-disp      z-disp      x-vel       y-vel       z-vel      x-accl      y-accl      z-accl      x-coor      y-coor      z-coor
    22626 -4.27429E-03 3.78722E-01-4.54978E-01-2.03487E-03 3.25644E-01-5.86095E-02 4.10138E-04 3.35664E-01 3.74749E-02 4.65510E+00-2.78121E+01-4.54367E+01



 n o d a l   p r i n t   o u t   f o r   t i m e  s t e p   11602                              ( at time 5.7999195E+00 )

 nodal point  x-rot      y-rot       z-rot       x-rot vel   y-rot vel   z-rot vel   x-rot acc   y-rot acc   z-rot acc
    22626 -1.79043E-03-3.60310E-05-1.08061E-04-2.08906E-03-1.79642E-05-1.00678E-04-2.25557E-03 4.00080E-05-1.15737E-04



 n o d a l   p r i n t   o u t   f o r   t i m e  s t e p   11802                              ( at time 5.8999095E+00 )

 nodal point  x-disp     y-disp      z-disp      x-vel       y-vel       z-vel      x-accl      y-accl      z-accl      x-coor      y-coor      z-coor
    22626 -4.47201E-03 4.13074E-01-4.60807E-01-1.68882E-03 3.61369E-01-5.81992E-02 3.46086E-03 3.57285E-01 4.10293E-03 4.65490E+00-2.77778E+01-4.54425E+01



 n o d a l   p r i n t   o u t   f o r   t i m e  s t e p   11802                              ( at time 5.8999095E+00 )

 nodal point  x-rot      y-rot       z-rot       x-rot vel   y-rot vel   z-rot vel   x-rot acc   y-rot acc   z-rot acc
    22626 -2.01106E-03-3.77531E-05-1.17990E-04-2.33334E-03-1.77416E-05-9.88707E-05-2.44309E-03 2.22623E-06 1.80773E-05



 n o d a l   p r i n t   o u t   f o r   t i m e  s t e p   12002                              ( at time 5.9998995E+00 )

 nodal point  x-disp     y-disp      z-disp      x-vel       y-vel       z-vel      x-accl      y-accl      z-accl      x-coor      y-coor      z-coor
    22626 -4.65958E-03 4.51139E-01-4.66530E-01-2.22579E-03 3.99269E-01-5.63089E-02-5.37026E-03 3.79042E-01 1.89050E-02 4.65472E+00-2.77397E+01-4.54482E+01



 n o d a l   p r i n t   o u t   f o r   t i m e  s t e p   12002                              ( at time 5.9998995E+00 )

 nodal point  x-rot      y-rot       z-rot       x-rot vel   y-rot vel   z-rot vel   x-rot acc   y-rot acc   z-rot acc
    22626 -2.25645E-03-3.97607E-05-1.27618E-04-2.57724E-03-2.01295E-05-1.02475E-04-2.43922E-03-2.38815E-05-3.60487E-05



 n o d a l   p r i n t   o u t   f o r   t i m e  s t e p   12202                              ( at time 6.0998895E+00 )

 nodal point  x-disp     y-disp      z-disp      x-vel       y-vel       z-vel      x-accl      y-accl      z-accl      x-coor      y-coor      z-coor
    22626 -4.84268E-03 4.93011E-01-4.72025E-01-1.99324E-03 4.38782E-01-5.37678E-02 2.32575E-03 3.95168E-01 2.54135E-02 4.65453E+00-2.76978E+01-4.54537E+01



 n o d a l   p r i n t   o u t   f o r   t i m e  s t e p   12202                              ( at time 6.0998895E+00 )

 nodal point  x-rot      y-rot       z-rot       x-rot vel   y-rot vel   z-rot vel   x-rot acc   y-rot acc   z-rot acc
    22626 -2.52691E-03-4.13934E-05-1.38373E-04-2.83425E-03-1.10257E-05-1.04807E-04-2.57036E-03 9.10465E-05-2.33167E-05



 n o d a l   p r i n t   o u t   f o r   t i m e  s t e p   12402                              ( at time 6.1998795E+00 )

 nodal point  x-disp     y-disp      z-disp      x-vel       y-vel       z-vel      x-accl      y-accl      z-accl      x-coor      y-coor      z-coor
    22626 -5.05080E-03 5.38927E-01-4.77336E-01-1.97312E-03 4.79726E-01-5.25305E-02 2.01223E-04 4.09475E-01 1.23741E-02 4.65432E+00-2.76519E+01-4.54591E+01



 n o d a l   p r i n t   o u t   f o r   t i m e  s t e p   12402                              ( at time 6.1998795E+00 )

 nodal point  x-rot      y-rot       z-rot       x-rot vel   y-rot vel   z-rot vel   x-rot acc   y-rot acc   z-rot acc
    22626 -2.82356E-03-4.25390E-05-1.48839E-04-3.10174E-03-1.11119E-05-1.06592E-04-2.67511E-03-8.62252E-07-1.78511E-05



 n o d a l   p r i n t   o u t   f o r   t i m e  s t e p   12602                              ( at time 6.2998695E+00 )

 nodal point  x-disp     y-disp      z-disp      x-vel       y-vel       z-vel      x-accl      y-accl      z-accl      x-coor      y-coor      z-coor
    22626 -5.23493E-03 5.89069E-01-4.82609E-01-1.65028E-03 5.23555E-01-5.29066E-02 3.22866E-03 4.38334E-01-3.76136E-03 4.65414E+00-2.76018E+01-4.54643E+01



 n o d a l   p r i n t   o u t   f o r   t i m e  s t e p   12602                              ( at time 6.2998695E+00 )

 nodal point  x-rot      y-rot       z-rot       x-rot vel   y-rot vel   z-rot vel   x-rot acc   y-rot acc   z-rot acc
    22626 -3.14717E-03-4.37994E-05-1.59076E-04-3.37060E-03-1.29983E-05-1.03637E-04-2.68892E-03-1.88660E-05 2.95514E-05



 n o d a l   p r i n t   o u t   f o r   t i m e  s t e p   12802                              ( at time 6.3998595E+00 )

 nodal point  x-disp     y-disp      z-disp      x-vel       y-vel       z-vel      x-accl      y-accl      z-accl      x-coor      y-coor      z-coor
    22626 -5.36398E-03 6.43582E-01-4.87850E-01-1.68726E-03 5.66785E-01-5.17027E-02-3.69789E-04 4.32343E-01 1.20407E-02 4.65401E+00-2.75472E+01-4.54696E+01



 n o d a l   p r i n t   o u t   f o r   t i m e  s t e p   12802                              ( at time 6.3998595E+00 )

 nodal point  x-rot      y-rot       z-rot       x-rot vel   y-rot vel   z-rot vel   x-rot acc   y-rot acc   z-rot acc
    22626 -3.49739E-03-4.48655E-05-1.69840E-04-3.63928E-03-1.20695E-05-1.08222E-04-2.68705E-03 9.28964E-06-4.58578E-05



 n o d a l   p r i n t   o u t   f o r   t i m e  s t e p   13002                              ( at time 6.4998495E+00 )

 nodal point  x-disp     y-disp      z-disp      x-vel       y-vel       z-vel      x-accl      y-accl      z-accl      x-coor      y-coor      z-coor
    22626 -5.57988E-03 7.02533E-01-4.92926E-01-1.96499E-03 6.12006E-01-4.99534E-02-2.77762E-03 4.52258E-01 1.74950E-02 4.65380E+00-2.74883E+01-4.54746E+01



 n o d a l   p r i n t   o u t   f o r   t i m e  s t e p   13002                              ( at time 6.4998495E+00 )

 nodal point  x-rot      y-rot       z-rot       x-rot vel   y-rot vel   z-rot vel   x-rot acc   y-rot acc   z-rot acc
    22626 -3.87550E-03-4.65343E-05-1.80878E-04-3.92550E-03-1.08931E-05-1.11408E-04-2.86248E-03 1.17649E-05-3.18662E-05



 n o d a l   p r i n t   o u t   f o r   t i m e  s t e p   13202                              ( at time 6.5998395E+00 )

 nodal point  x-disp     y-disp      z-disp      x-vel       y-vel       z-vel      x-accl      y-accl      z-accl      x-coor      y-coor      z-coor
    22626 -5.72449E-03 7.65990E-01-4.97840E-01-9.43015E-04 6.57781E-01-4.84483E-02 1.02208E-02 4.57798E-01 1.50518E-02 4.65365E+00-2.74248E+01-4.54796E+01



 n o d a l   p r i n t   o u t   f o r   t i m e  s t e p   13202                              ( at time 6.5998395E+00 )

 nodal point  x-rot      y-rot       z-rot       x-rot vel   y-rot vel   z-rot vel   x-rot acc   y-rot acc   z-rot acc
    22626 -4.28168E-03-4.75010E-05-1.92118E-04-4.20470E-03-9.22886E-06-1.09251E-04-2.79224E-03 1.66440E-05 2.15742E-05



 n o d a l   p r i n t   o u t   f o r   t i m e  s t e p   13402                              ( at time 6.6998295E+00 )

 nodal point  x-disp     y-disp      z-disp      x-vel       y-vel       z-vel      x-accl      y-accl      z-accl      x-coor      y-coor      z-coor
    22626 -5.82249E-03 8.34115E-01-5.02595E-01-1.57828E-03 7.04355E-01-4.69900E-02-6.35330E-03 4.65781E-01 1.45844E-02 4.65355E+00-2.73567E+01-4.54843E+01



 n o d a l   p r i n t   o u t   f o r   t i m e  s t e p   13402                              ( at time 6.6998295E+00 )

 nodal point  x-rot      y-rot       z-rot       x-rot vel   y-rot vel   z-rot vel   x-rot acc   y-rot acc   z-rot acc
    22626 -4.71509E-03-4.91192E-05-2.03211E-04-4.46854E-03-1.40973E-05-1.09131E-04-2.63872E-03-4.86896E-05 1.20553E-06



 n o d a l   p r i n t   o u t   f o r   t i m e  s t e p   13602                              ( at time 6.7998195E+00 )

 nodal point  x-disp     y-disp      z-disp      x-vel       y-vel       z-vel      x-accl      y-accl      z-accl      x-coor      y-coor      z-coor
    22626 -5.96802E-03 9.06874E-01-5.07264E-01-1.37510E-03 7.50976E-01-4.62908E-02 2.03205E-03 4.66260E-01 6.99326E-03 4.65341E+00-2.72840E+01-4.54890E+01



 n o d a l   p r i n t   o u t   f o r   t i m e  s t e p   13602                              ( at time 6.7998195E+00 )

 nodal point  x-rot      y-rot       z-rot       x-rot vel   y-rot vel   z-rot vel   x-rot acc   y-rot acc   z-rot acc
    22626 -5.17547E-03-5.03380E-05-2.15016E-04-4.74311E-03-1.05039E-05-1.22366E-04-2.74593E-03 3.59380E-05-1.32365E-04



 n o d a l   p r i n t   o u t   f o r   t i m e  s t e p   13802                              ( at time 6.8998095E+00 )

 nodal point  x-disp     y-disp      z-disp      x-vel       y-vel       z-vel      x-accl      y-accl      z-accl      x-coor      y-coor      z-coor
    22626 -6.06492E-03 9.84351E-01-5.11818E-01-8.85076E-04 7.98543E-01-4.43088E-02 4.90070E-03 4.75717E-01 1.98212E-02 4.65331E+00-2.72065E+01-4.54935E+01



 n o d a l   p r i n t   o u t   f o r   t i m e  s t e p   13802                              ( at time 6.8998095E+00 )

 nodal point  x-rot      y-rot       z-rot       x-rot vel   y-rot vel   z-rot vel   x-rot acc   y-rot acc   z-rot acc
    22626 -5.66377E-03-5.16866E-05-2.26308E-04-5.01751E-03-8.34499E-06-1.09254E-04-2.74428E-03 2.15912E-05 1.31131E-04



 n o d a l   p r i n t   o u t   f o r   t i m e  s t e p   14002                              ( at time 6.9997995E+00 )

 nodal point  x-disp     y-disp      z-disp      x-vel       y-vel       z-vel      x-accl      y-accl      z-accl      x-coor      y-coor      z-coor
    22626 -6.12221E-03 1.06657E+00-5.16110E-01-3.92051E-04 8.46232E-01-4.12426E-02 4.93075E-03 4.76937E-01 3.06660E-02 4.65325E+00-2.71243E+01-4.54978E+01



 n o d a l   p r i n t   o u t   f o r   t i m e  s t e p   14002                              ( at time 6.9997995E+00 )

 nodal point  x-rot      y-rot       z-rot       x-rot vel   y-rot vel   z-rot vel   x-rot acc   y-rot acc   z-rot acc
    22626 -6.17912E-03-5.23705E-05-2.37190E-04-5.28142E-03-7.13233E-06-1.07248E-04-2.63941E-03 1.21279E-05 2.00647E-05



 n o d a l   p r i n t   o u t   f o r   t i m e  s t e p   14202                              ( at time 7.0997895E+00 )

 nodal point  x-disp     y-disp      z-disp      x-vel       y-vel       z-vel      x-accl      y-accl      z-accl      x-coor      y-coor      z-coor
    22626 -6.15713E-03 1.15358E+00-5.20124E-01-3.26044E-04 8.93835E-01-3.90199E-02 6.60136E-04 4.76081E-01 2.22285E-02 4.65322E+00-2.70373E+01-4.55018E+01



 n o d a l   p r i n t   o u t   f o r   t i m e  s t e p   14202                              ( at time 7.0997895E+00 )

 nodal point  x-rot      y-rot       z-rot       x-rot vel   y-rot vel   z-rot vel   x-rot acc   y-rot acc   z-rot acc
    22626 -6.72089E-03-5.34422E-05-2.48151E-04-5.55086E-03-1.03121E-05-1.10091E-04-2.69467E-03-3.18007E-05-2.84342E-05



 n o d a l   p r i n t   o u t   f o r   t i m e  s t e p   14402                              ( at time 7.1997794E+00 )

 nodal point  x-disp     y-disp      z-disp      x-vel       y-vel       z-vel      x-accl      y-accl      z-accl      x-coor      y-coor      z-coor
    22626 -6.17684E-03 1.24535E+00-5.23896E-01 1.50317E-04 9.41700E-01-3.59651E-02 4.76409E-03 4.78693E-01 3.05516E-02 4.65320E+00-2.69455E+01-4.55056E+01



 n o d a l   p r i n t   o u t   f o r   t i m e  s t e p   14402                              ( at time 7.1997794E+00 )

 nodal point  x-rot      y-rot       z-rot       x-rot vel   y-rot vel   z-rot vel   x-rot acc   y-rot acc   z-rot acc
    22626 -7.28935E-03-5.36345E-05-2.58204E-04-5.81430E-03 7.43087E-06-9.40883E-05-2.63464E-03 1.77448E-04 1.60042E-04



 n o d a l   p r i n t   o u t   f o r   t i m e  s t e p   14602                              ( at time 7.2997694E+00 )

 nodal point  x-disp     y-disp      z-disp      x-vel       y-vel       z-vel      x-accl      y-accl      z-accl      x-coor      y-coor      z-coor
    22626 -6.10487E-03 1.34186E+00-5.27255E-01 9.68374E-04 9.88969E-01-3.08698E-02 8.18139E-03 4.72739E-01 5.09576E-02 4.65327E+00-2.68490E+01-4.55090E+01



 n o d a l   p r i n t   o u t   f o r   t i m e  s t e p   14602                              ( at time 7.2997694E+00 )

 nodal point  x-rot      y-rot       z-rot       x-rot vel   y-rot vel   z-rot vel   x-rot acc   y-rot acc   z-rot acc
    22626 -7.88345E-03-5.28605E-05-2.67958E-04-6.07302E-03-3.76110E-06-9.89105E-05-2.58744E-03-1.11931E-04-4.82272E-05



 n o d a l   p r i n t   o u t   f o r   t i m e  s t e p   14802                              ( at time 7.3997594E+00 )

 nodal point  x-disp     y-disp      z-disp      x-vel       y-vel       z-vel      x-accl      y-accl      z-accl      x-coor      y-coor      z-coor
    22626 -6.00598E-03 1.44311E+00-5.30045E-01 1.34592E-03 1.03572E+00-2.48565E-02 3.77580E-03 4.67601E-01 6.01389E-02 4.65337E+00-2.67477E+01-4.55118E+01



 n o d a l   p r i n t   o u t   f o r   t i m e  s t e p   14802                              ( at time 7.3997594E+00 )

 nodal point  x-rot      y-rot       z-rot       x-rot vel   y-rot vel   z-rot vel   x-rot acc   y-rot acc   z-rot acc
    22626 -8.50334E-03-5.31717E-05-2.76954E-04-6.32431E-03 6.12665E-06-8.71039E-05-2.51319E-03 9.88875E-05 1.18079E-04



 n o d a l   p r i n t   o u t   f o r   t i m e  s t e p   15002                              ( at time 7.4997494E+00 )

 nodal point  x-disp     y-disp      z-disp      x-vel       y-vel       z-vel      x-accl      y-accl      z-accl      x-coor      y-coor      z-coor
    22626 -5.83250E-03 1.54900E+00-5.32237E-01 2.21471E-03 1.08220E+00-1.89461E-02 8.68879E-03 4.64820E-01 5.91102E-02 4.65354E+00-2.66418E+01-4.55140E+01



 n o d a l   p r i n t   o u t   f o r   t i m e  s t e p   15002                              ( at time 7.4997494E+00 )

 nodal point  x-rot      y-rot       z-rot       x-rot vel   y-rot vel   z-rot vel   x-rot acc   y-rot acc   z-rot acc
    22626 -9.14801E-03-5.12233E-05-2.85035E-04-6.56768E-03 2.22739E-05-8.39563E-05-2.43392E-03 1.61488E-04 3.14788E-05



 n o d a l   p r i n t   o u t   f o r   t i m e  s t e p   15202                              ( at time 7.5997394E+00 )

 nodal point  x-disp     y-disp      z-disp      x-vel       y-vel       z-vel      x-accl      y-accl      z-accl      x-coor      y-coor      z-coor
    22626 -5.59772E-03 1.65959E+00-5.33848E-01 2.65971E-03 1.12935E+00-1.27497E-02 4.45040E-03 4.71573E-01 6.19702E-02 4.65378E+00-2.65312E+01-4.55156E+01



 n o d a l   p r i n t   o u t   f o r   t i m e  s t e p   15202                              ( at time 7.5997394E+00 )

 nodal point  x-rot      y-rot       z-rot       x-rot vel   y-rot vel   z-rot vel   x-rot acc   y-rot acc   z-rot acc
    22626 -9.81659E-03-4.95293E-05-2.93406E-04-6.80152E-03 1.19880E-05-7.85584E-05-2.33865E-03-1.02870E-04 5.39841E-05



 n o d a l   p r i n t   o u t   f o r   t i m e  s t e p   15402                              ( at time 7.6997294E+00 )

 nodal point  x-disp     y-disp      z-disp      x-vel       y-vel       z-vel      x-accl      y-accl      z-accl      x-coor      y-coor      z-coor
    22626 -5.27815E-03 1.77480E+00-5.34820E-01 3.64451E-03 1.17519E+00-6.43364E-03 9.84904E-03 4.58435E-01 6.31670E-02 4.65410E+00-2.64160E+01-4.55165E+01



 n o d a l   p r i n t   o u t   f o r   t i m e  s t e p   15402                              ( at time 7.6997294E+00 )

 nodal point  x-rot      y-rot       z-rot       x-rot vel   y-rot vel   z-rot vel   x-rot acc   y-rot acc   z-rot acc
    22626 -1.05081E-02-4.77009E-05-3.00126E-04-7.03402E-03 2.26912E-05-6.11843E-05-2.32526E-03 1.07043E-04 1.73759E-04



 n o d a l   p r i n t   o u t   f o r   t i m e  s t e p   15602                              ( at time 7.7997194E+00 )

 nodal point  x-disp     y-disp      z-disp      x-vel       y-vel       z-vel      x-accl      y-accl      z-accl      x-coor      y-coor      z-coor
    22626 -4.88288E-03 1.89455E+00-5.35096E-01 4.45918E-03 1.21978E+00 1.08122E-03 8.14755E-03 4.45953E-01 7.51562E-02 4.65449E+00-2.62963E+01-4.55168E+01



 n o d a l   p r i n t   o u t   f o r   t i m e  s t e p   15602                              ( at time 7.7997194E+00 )

 nodal point  x-rot      y-rot       z-rot       x-rot vel   y-rot vel   z-rot vel   x-rot acc   y-rot acc   z-rot acc
    22626 -1.12218E-02-4.49479E-05-3.06358E-04-7.24569E-03 3.36997E-05-5.88589E-05-2.11687E-03 1.10096E-04 2.32561E-05



 n o d a l   p r i n t   o u t   f o r   t i m e  s t e p   15802                              ( at time 7.8997094E+00 )

 nodal point  x-disp     y-disp      z-disp      x-vel       y-vel       z-vel      x-accl      y-accl      z-accl      x-coor      y-coor      z-coor
    22626 -4.38118E-03 2.01878E+00-5.34551E-01 5.31558E-03 1.26383E+00 9.51696E-03 8.56484E-03 4.40530E-01 8.43659E-02 4.65499E+00-2.61721E+01-4.55163E+01



 n o d a l   p r i n t   o u t   f o r   t i m e  s t e p   15802                              ( at time 7.8997094E+00 )

 nodal point  x-rot      y-rot       z-rot       x-rot vel   y-rot vel   z-rot vel   x-rot acc   y-rot acc   z-rot acc
    22626 -1.19555E-02-4.06384E-05-3.10509E-04-7.43073E-03 5.18302E-05-2.94714E-05-1.85061E-03 1.81324E-04 2.93905E-04



 n o d a l   p r i n t   o u t   f o r   t i m e  s t e p   16002                              ( at time 7.9996994E+00 )

 nodal point  x-disp     y-disp      z-disp      x-vel       y-vel       z-vel      x-accl      y-accl      z-accl      x-coor      y-coor      z-coor
    22626 -3.72993E-03 2.14742E+00-5.33184E-01 7.20933E-03 1.30890E+00 1.75471E-02 1.89393E-02 4.50743E-01 8.03094E-02 4.65564E+00-2.60434E+01-4.55149E+01



 n o d a l   p r i n t   o u t   f o r   t i m e  s t e p   16002                              ( at time 7.9996994E+00 )

 nodal point  x-rot      y-rot       z-rot       x-rot vel   y-rot vel   z-rot vel   x-rot acc   y-rot acc   z-rot acc
    22626 -1.27076E-02-3.45665E-05-3.11949E-04-7.61779E-03 6.63444E-05-8.34849E-06-1.87079E-03 1.45156E-04 2.11249E-04



 n o d a l   p r i n t   o u t   f o r   t i m e  s t e p   16202                              ( at time 8.0996894E+00 )

 nodal point  x-disp     y-disp      z-disp      x-vel       y-vel       z-vel      x-accl      y-accl      z-accl      x-coor      y-coor      z-coor
    22626 -2.98089E-03 2.28035E+00-5.30946E-01 7.54490E-03 1.34997E+00 2.76507E-02 3.35609E-03 4.10679E-01 1.01046E-01 4.65639E+00-2.59105E+01-4.55127E+01



 n o d a l   p r i n t   o u t   f o r   t i m e  s t e p   16202                              ( at time 8.0996894E+00 )

 nodal point  x-rot      y-rot       z-rot       x-rot vel   y-rot vel   z-rot vel   x-rot acc   y-rot acc   z-rot acc
    22626 -1.34779E-02-2.77756E-05-3.11241E-04-7.78462E-03 7.37689E-05 9.48110E-06-1.66844E-03 7.42522E-05 1.78314E-04



 n o d a l   p r i n t   o u t   f o r   t i m e  s t e p   16402                              ( at time 8.1996794E+00 )

 nodal point  x-disp     y-disp      z-disp      x-vel       y-vel       z-vel      x-accl      y-accl      z-accl      x-coor      y-coor      z-coor
    22626 -2.12528E-03 2.41746E+00-5.27673E-01 9.18180E-03 1.39175E+00 3.79242E-02 1.63706E-02 4.17917E-01 1.02746E-01 4.65725E+00-2.57734E+01-4.55094E+01



 n o d a l   p r i n t   o u t   f o r   t i m e  s t e p   16402                              ( at time 8.1996794E+00 )

 nodal point  x-rot      y-rot       z-rot       x-rot vel   y-rot vel   z-rot vel   x-rot acc   y-rot acc   z-rot acc
    22626 -1.42640E-02-1.98050E-05-3.08956E-04-7.94401E-03 8.88767E-05 3.06519E-05-1.59407E-03 1.51093E-04 2.11729E-04



 n o d a l   p r i n t   o u t   f o r   t i m e  s t e p   16602                              ( at time 8.2996694E+00 )

 nodal point  x-disp     y-disp      z-disp      x-vel       y-vel       z-vel      x-accl      y-accl      z-accl      x-coor      y-coor      z-coor
    22626 -1.14142E-03 2.55864E+00-5.23253E-01 1.06298E-02 1.43169E+00 4.95562E-02 1.44818E-02 3.99440E-01 1.16332E-01 4.65823E+00-2.56322E+01-4.55050E+01



 n o d a l   p r i n t   o u t   f o r   t i m e  s t e p   16602                              ( at time 8.2996694E+00 )

 nodal point  x-rot      y-rot       z-rot       x-rot vel   y-rot vel   z-rot vel   x-rot acc   y-rot acc   z-rot acc
    22626 -1.50639E-02-9.81743E-06-3.04891E-04-8.07460E-03 1.03843E-04 5.27590E-05-1.30600E-03 1.49676E-04 2.21093E-04



 n o d a l   p r i n t   o u t   f o r   t i m e  s t e p   16802                              ( at time 8.3996594E+00 )

 nodal point  x-disp     y-disp      z-disp      x-vel       y-vel       z-vel      x-accl      y-accl      z-accl      x-coor      y-coor      z-coor
    22626  7.62107E-07 2.70379E+00-5.17666E-01 1.18789E-02 1.47047E+00 6.18374E-02 1.24920E-02 3.87770E-01 1.22825E-01 4.65938E+00-2.54870E+01-4.54994E+01



 n o d a l   p r i n t   o u t   f o r   t i m e  s t e p   16802                              ( at time 8.3996594E+00 )

 nodal point  x-rot      y-rot       z-rot       x-rot vel   y-rot vel   z-rot vel   x-rot acc   y-rot acc   z-rot acc
    22626 -1.58759E-02 7.28709E-07-2.99078E-04-8.17660E-03 1.04161E-04 6.40998E-05-1.02012E-03 3.18159E-06 1.13419E-04



 n o d a l   p r i n t   o u t   f o r   t i m e  s t e p   17002                              ( at time 8.4996494E+00 )

 nodal point  x-disp     y-disp      z-disp      x-vel       y-vel       z-vel      x-accl      y-accl      z-accl      x-coor      y-coor      z-coor
    22626  1.21367E-03 2.85275E+00-5.10881E-01 1.28525E-02 1.50934E+00 7.44904E-02 9.73736E-03 3.88770E-01 1.26543E-01 4.66059E+00-2.53381E+01-4.54926E+01



 n o d a l   p r i n t   o u t   f o r   t i m e  s t e p   17002                              ( at time 8.4996494E+00 )

 nodal point  x-rot      y-rot       z-rot       x-rot vel   y-rot vel   z-rot vel   x-rot acc   y-rot acc   z-rot acc
    22626 -1.66988E-02 1.14626E-05-2.92618E-04-8.27549E-03 1.11553E-04 7.24881E-05-9.89044E-04 7.39311E-05 8.38918E-05



 n o d a l   p r i n t   o u t   f o r   t i m e  s t e p   17202                              ( at time 8.5996394E+00 )

 nodal point  x-disp     y-disp      z-disp      x-vel       y-vel       z-vel      x-accl      y-accl      z-accl      x-coor      y-coor      z-coor
    22626  2.52417E-03 3.00545E+00-5.02775E-01 1.36144E-02 1.54483E+00 8.81703E-02 7.61929E-03 3.54936E-01 1.36812E-01 4.66190E+00-2.51854E+01-4.54845E+01



 n o d a l   p r i n t   o u t   f o r   t i m e  s t e p   17202                              ( at time 8.5996394E+00 )

 nodal point  x-rot      y-rot       z-rot       x-rot vel   y-rot vel   z-rot vel   x-rot acc   y-rot acc   z-rot acc
    22626 -1.75303E-02 2.31040E-05-2.85154E-04-8.34526E-03 1.28274E-04 8.25955E-05-6.97771E-04 1.67227E-04 1.01084E-04



 n o d a l   p r i n t   o u t   f o r   t i m e  s t e p   17402                              ( at time 8.6996293E+00 )

 nodal point  x-disp     y-disp      z-disp      x-vel       y-vel       z-vel      x-accl      y-accl      z-accl      x-coor      y-coor      z-coor
    22626  3.96274E-03 3.16171E+00-4.93251E-01 1.49394E-02 1.58020E+00 1.02762E-01 1.32511E-02 3.53706E-01 1.45926E-01 4.66334E+00-2.50291E+01-4.54750E+01



 n o d a l   p r i n t   o u t   f o r   t i m e  s t e p   17402                              ( at time 8.6996293E+00 )

 nodal point  x-rot      y-rot       z-rot       x-rot vel   y-rot vel   z-rot vel   x-rot acc   y-rot acc   z-rot acc
    22626 -1.83677E-02 3.61915E-05-2.76288E-04-8.40641E-03 1.28742E-04 9.08653E-05-6.11553E-04 4.68134E-06 8.27056E-05



 n o d a l   p r i n t   o u t   f o r   t i m e  s t e p   17602                              ( at time 8.7996193E+00 )

 nodal point  x-disp     y-disp      z-disp      x-vel       y-vel       z-vel      x-accl      y-accl      z-accl      x-coor      y-coor      z-coor
    22626  5.49438E-03 3.32141E+00-4.82187E-01 1.57606E-02 1.61393E+00 1.17914E-01 8.21286E-03 3.37374E-01 1.51543E-01 4.66487E+00-2.48694E+01-4.54639E+01



 n o d a l   p r i n t   o u t   f o r   t i m e  s t e p   17602                              ( at time 8.7996193E+00 )

 nodal point  x-rot      y-rot       z-rot       x-rot vel   y-rot vel   z-rot vel   x-rot acc   y-rot acc   z-rot acc
    22626 -1.92095E-02 4.93628E-05-2.66605E-04-8.43714E-03 1.37366E-04 1.06206E-04-3.07330E-04 8.62483E-05 1.53418E-04



 n o d a l   p r i n t   o u t   f o r   t i m e  s t e p   17802                              ( at time 8.8996093E+00 )

 nodal point  x-disp     y-disp      z-disp      x-vel       y-vel       z-vel      x-accl      y-accl      z-accl      x-coor      y-coor      z-coor
    22626  7.08940E-03 3.48445E+00-4.69547E-01 1.63652E-02 1.64621E+00 1.35137E-01 6.04665E-03 3.22811E-01 1.72242E-01 4.66646E+00-2.47064E+01-4.54513E+01



 n o d a l   p r i n t   o u t   f o r   t i m e  s t e p   17802                              ( at time 8.8996093E+00 )

 nodal point  x-rot      y-rot       z-rot       x-rot vel   y-rot vel   z-rot vel   x-rot acc   y-rot acc   z-rot acc
    22626 -2.00532E-02 6.31691E-05-2.55792E-04-8.44142E-03 1.44756E-04 1.11789E-04-4.27800E-05 7.39089E-05 5.58362E-05



 n o d a l   p r i n t   o u t   f o r   t i m e  s t e p   18002                              ( at time 8.9995993E+00 )

 nodal point  x-disp     y-disp      z-disp      x-vel       y-vel       z-vel      x-accl      y-accl      z-accl      x-coor      y-coor      z-coor
    22626  8.78367E-03 3.65057E+00-4.55175E-01 1.74597E-02 1.67644E+00 1.52618E-01 1.09458E-02 3.02319E-01 1.74834E-01 4.66816E+00-2.45403E+01-4.54369E+01



 n o d a l   p r i n t   o u t   f o r   t i m e  s t e p   18002                              ( at time 8.9995993E+00 )

 nodal point  x-rot      y-rot       z-rot       x-rot vel   y-rot vel   z-rot vel   x-rot acc   y-rot acc   z-rot acc
    22626 -2.08979E-02 7.82303E-05-2.43973E-04-8.44380E-03 1.60396E-04 1.26547E-04-2.38070E-05 1.56416E-04 1.47604E-04



 n o d a l   p r i n t   o u t   f o r   t i m e  s t e p   18202                              ( at time 9.0995893E+00 )

 nodal point  x-disp     y-disp      z-disp      x-vel       y-vel       z-vel      x-accl      y-accl      z-accl      x-coor      y-coor      z-coor
    22626  1.05913E-02 3.81963E+00-4.38961E-01 1.82648E-02 1.70460E+00 1.72052E-01 8.05173E-03 2.81679E-01 1.94361E-01 4.66997E+00-2.43712E+01-4.54207E+01



 n o d a l   p r i n t   o u t   f o r   t i m e  s t e p   18202                              ( at time 9.0995893E+00 )

 nodal point  x-rot      y-rot       z-rot       x-rot vel   y-rot vel   z-rot vel   x-rot acc   y-rot acc   z-rot acc
    22626 -2.17417E-02 9.41428E-05-2.31499E-04-8.43168E-03 1.52075E-04 1.20267E-04 1.21243E-04-8.32225E-05-6.28084E-05



 n o d a l   p r i n t   o u t   f o r   t i m e  s t e p   18402                              ( at time 9.1995793E+00 )

 nodal point  x-disp     y-disp      z-disp      x-vel       y-vel       z-vel      x-accl      y-accl      z-accl      x-coor      y-coor      z-coor
    22626  1.24080E-02 3.99143E+00-4.20683E-01 1.84117E-02 1.73135E+00 1.93088E-01 1.46996E-03 2.67454E-01 2.10375E-01 4.67178E+00-2.41994E+01-4.54024E+01



 n o d a l   p r i n t   o u t   f o r   t i m e  s t e p   18402                              ( at time 9.1995793E+00 )

 nodal point  x-rot      y-rot       z-rot       x-rot vel   y-rot vel   z-rot vel   x-rot acc   y-rot acc   z-rot acc
    22626 -2.25829E-02 1.09307E-04-2.19343E-04-8.39270E-03 1.52280E-04 1.16488E-04 3.89826E-04 2.04562E-06-3.77956E-05



 n o d a l   p r i n t   o u t   f o r   t i m e  s t e p   18602                              ( at time 9.2995693E+00 )

 nodal point  x-disp     y-disp      z-disp      x-vel       y-vel       z-vel      x-accl      y-accl      z-accl      x-coor      y-coor      z-coor
    22626  1.43190E-02 4.16583E+00-4.00325E-01 1.96903E-02 1.75682E+00 2.14333E-01 1.27871E-02 2.54787E-01 2.12471E-01 4.67369E+00-2.40250E+01-4.53820E+01



 n o d a l   p r i n t   o u t   f o r   t i m e  s t e p   18602                              ( at time 9.2995693E+00 )

 nodal point  x-rot      y-rot       z-rot       x-rot vel   y-rot vel   z-rot vel   x-rot acc   y-rot acc   z-rot acc
    22626 -2.34206E-02 1.25543E-04-2.06832E-04-8.35247E-03 1.66305E-04 1.27623E-04 4.02307E-04 1.40273E-04 1.11363E-04



 n o d a l   p r i n t   o u t   f o r   t i m e  s t e p   18802                              ( at time 9.3995593E+00 )

 nodal point  x-disp     y-disp      z-disp      x-vel       y-vel       z-vel      x-accl      y-accl      z-accl      x-coor      y-coor      z-coor
    22626  1.63074E-02 4.34264E+00-3.77711E-01 1.99637E-02 1.77929E+00 2.38856E-01 2.73442E-03 2.24671E-01 2.45256E-01 4.67568E+00-2.38482E+01-4.53594E+01



 n o d a l   p r i n t   o u t   f o r   t i m e  s t e p   18802                              ( at time 9.3995593E+00 )

 nodal point  x-rot      y-rot       z-rot       x-rot vel   y-rot vel   z-rot vel   x-rot acc   y-rot acc   z-rot acc
    22626 -2.42536E-02 1.42026E-04-1.94482E-04-8.29875E-03 1.61597E-04 1.21032E-04 5.37297E-04-4.70937E-05-6.59153E-05



 n o d a l   p r i n t   o u t   f o r   t i m e  s t e p   19002                              ( at time 9.4995493E+00 )

 nodal point  x-disp     y-disp      z-disp      x-vel       y-vel       z-vel      x-accl      y-accl      z-accl      x-coor      y-coor      z-coor
    22626  1.82922E-02 4.52160E+00-3.52538E-01 1.98268E-02 1.80080E+00 2.64543E-01-1.36937E-03 2.15160E-01 2.56893E-01 4.67767E+00-2.36692E+01-4.53343E+01



 n o d a l   p r i n t   o u t   f o r   t i m e  s t e p   19002                              ( at time 9.4995493E+00 )

 nodal point  x-rot      y-rot       z-rot       x-rot vel   y-rot vel   z-rot vel   x-rot acc   y-rot acc   z-rot acc
    22626 -2.50807E-02 1.57862E-04-1.82488E-04-8.25438E-03 1.59442E-04 1.17582E-04 4.43708E-04-2.15472E-05-3.45096E-05



 n o d a l   p r i n t   o u t   f o r   t i m e  s t e p   19202                              ( at time 9.5995393E+00 )

 nodal point  x-disp     y-disp      z-disp      x-vel       y-vel       z-vel      x-accl      y-accl      z-accl      x-coor      y-coor      z-coor
    22626  2.03164E-02 4.70270E+00-3.24710E-01 2.02254E-02 1.82123E+00 2.92167E-01 3.98648E-03 2.04299E-01 2.76269E-01 4.67969E+00-2.34881E+01-4.53064E+01



 n o d a l   p r i n t   o u t   f o r   t i m e  s t e p   19202                              ( at time 9.5995393E+00 )

 nodal point  x-rot      y-rot       z-rot       x-rot vel   y-rot vel   z-rot vel   x-rot acc   y-rot acc   z-rot acc
    22626 -2.59029E-02 1.73727E-04-1.70090E-04-8.20852E-03 1.63040E-04 1.26259E-04 4.58616E-04 3.59798E-05 8.67772E-05



 n o d a l   p r i n t   o u t   f o r   t i m e  s t e p   19402                              ( at time 9.6995293E+00 )

 nodal point  x-disp     y-disp      z-disp      x-vel       y-vel       z-vel      x-accl      y-accl      z-accl      x-coor      y-coor      z-coor
    22626  2.23875E-02 4.88569E+00-2.94025E-01 2.10740E-02 1.83777E+00 3.21433E-01 8.48632E-03 1.65384E-01 2.92685E-01 4.68176E+00-2.33051E+01-4.52757E+01



 n o d a l   p r i n t   o u t   f o r   t i m e  s t e p   19402                              ( at time 9.6995293E+00 )

 nodal point  x-rot      y-rot       z-rot       x-rot vel   y-rot vel   z-rot vel   x-rot acc   y-rot acc   z-rot acc
    22626 -2.67181E-02 1.91192E-04-1.57784E-04-8.11356E-03 1.79001E-04 1.13839E-04 9.49710E-04 1.59630E-04-1.24207E-04



 n o d a l   p r i n t   o u t   f o r   t i m e  s t e p   19602                              ( at time 9.7995193E+00 )

 nodal point  x-disp     y-disp      z-disp      x-vel       y-vel       z-vel      x-accl      y-accl      z-accl      x-coor      y-coor      z-coor
    22626  2.44998E-02 5.07032E+00-2.60378E-01 2.07331E-02 1.85503E+00 3.51764E-01-3.40925E-03 1.72706E-01 3.03341E-01 4.68387E+00-2.31205E+01-4.52421E+01



 n o d a l   p r i n t   o u t   f o r   t i m e  s t e p   19602                              ( at time 9.7995193E+00 )

 nodal point  x-rot      y-rot       z-rot       x-rot vel   y-rot vel   z-rot vel   x-rot acc   y-rot acc   z-rot acc
    22626 -2.75255E-02 2.08180E-04-1.46217E-04-8.05628E-03 1.63295E-04 1.23734E-04 5.72924E-04-1.57082E-04 9.89520E-05



 n o d a l   p r i n t   o u t   f o r   t i m e  s t e p   19802                              ( at time 9.8995093E+00 )

 nodal point  x-disp     y-disp      z-disp      x-vel       y-vel       z-vel      x-accl      y-accl      z-accl      x-coor      y-coor      z-coor
    22626  2.65320E-02 5.25659E+00-2.23610E-01 2.04841E-02 1.87031E+00 3.84950E-01-2.48955E-03 1.52796E-01 3.31892E-01 4.68591E+00-2.29342E+01-4.52053E+01



 n o d a l   p r i n t   o u t   f o r   t i m e  s t e p   19802                              ( at time 9.8995093E+00 )

 nodal point  x-rot      y-rot       z-rot       x-rot vel   y-rot vel   z-rot vel   x-rot acc   y-rot acc   z-rot acc
    22626 -2.83279E-02 2.24718E-04-1.34322E-04-7.98268E-03 1.70051E-04 1.17760E-04 7.36033E-04 6.75689E-05-5.97431E-05



 n o d a l   p r i n t   o u t   f o r   t i m e  s t e p   20003                              ( at time 9.9999992E+00 )

 nodal point  x-disp     y-disp      z-disp      x-vel       y-vel       z-vel      x-accl      y-accl      z-accl      x-coor      y-coor      z-coor
[...]
    22626 -2.10985E-01 1.01400E-03-6.75790E-03-2.68887E-02 4.47856E-04-2.50094E-04-3.19827E-04-3.10653E-04-4.73228E-05



 n o d a l   p r i n t   o u t   f o r   t i m e  s t e p   45205                              ( at time 2.2599738E+01 )

 nodal point  x-disp     y-disp      z-disp      x-vel       y-vel       z-vel      x-accl      y-accl      z-accl      x-coor      y-coor      z-coor
    22626 -3.68172E-01 2.79427E+01 2.03044E+01-6.47339E-02 1.88524E+00 9.68758E-01 1.84493E-03-4.84129E-02-1.29962E-02 4.29120E+00-2.48153E-01-2.46773E+01



 n o d a l   p r i n t   o u t   f o r   t i m e  s t e p   45205                              ( at time 2.2599738E+01 )

 nodal point  x-rot      y-rot       z-rot       x-rot vel   y-rot vel   z-rot vel   x-rot acc   y-rot acc   z-rot acc
    22626 -2.13676E-01 1.05829E-03-6.78315E-03-2.69420E-02 4.54800E-04-2.49031E-04-5.32523E-04 6.94414E-05 1.06303E-05



 n o d a l   p r i n t   o u t   f o r   t i m e  s t e p   45405                              ( at time 2.2699728E+01 )

 nodal point  x-disp     y-disp      z-disp      x-vel       y-vel       z-vel      x-accl      y-accl      z-accl      x-coor      y-coor      z-coor
    22626 -3.74634E-01 2.81309E+01 2.04014E+01-6.39020E-02 1.87917E+00 9.71004E-01 8.32054E-03-6.07045E-02 2.24627E-02 4.28474E+00-5.99227E-02-2.45803E+01



 n o d a l   p r i n t   o u t   f o r   t i m e  s t e p   45405                              ( at time 2.2699728E+01 )

 nodal point  x-rot      y-rot       z-rot       x-rot vel   y-rot vel   z-rot vel   x-rot acc   y-rot acc   z-rot acc
    22626 -2.16372E-01 1.10469E-03-6.80803E-03-2.69737E-02 4.64197E-04-2.58608E-04-3.17188E-04 9.39808E-05-9.57730E-05



 n o d a l   p r i n t   o u t   f o r   t i m e  s t e p   45605                              ( at time 2.2799718E+01 )

 nodal point  x-disp     y-disp      z-disp      x-vel       y-vel       z-vel      x-accl      y-accl      z-accl      x-coor      y-coor      z-coor
    22626 -3.81027E-01 2.83185E+01 2.04986E+01-6.42576E-02 1.87342E+00 9.73249E-01-3.55693E-03-5.74296E-02 2.24480E-02 4.27835E+00 1.27696E-01-2.44831E+01



 n o d a l   p r i n t   o u t   f o r   t i m e  s t e p   45605                              ( at time 2.2799718E+01 )

 nodal point  x-rot      y-rot       z-rot       x-rot vel   y-rot vel   z-rot vel   x-rot acc   y-rot acc   z-rot acc
    22626 -2.19070E-01 1.15066E-03-6.83305E-03-2.69963E-02 4.45669E-04-2.47755E-04-2.26481E-04-1.85290E-04 1.08536E-04



 n o d a l   p r i n t   o u t   f o r   t i m e  s t e p   45805                              ( at time 2.2899708E+01 )

 nodal point  x-disp     y-disp      z-disp      x-vel       y-vel       z-vel      x-accl      y-accl      z-accl      x-coor      y-coor      z-coor
    22626 -3.87428E-01 2.85056E+01 2.05961E+01-6.37710E-02 1.86737E+00 9.76440E-01 4.86659E-03-6.05304E-02 3.19159E-02 4.27195E+00 3.14737E-01-2.43856E+01



 n o d a l   p r i n t   o u t   f o r   t i m e  s t e p   45805                              ( at time 2.2899708E+01 )

 nodal point  x-rot      y-rot       z-rot       x-rot vel   y-rot vel   z-rot vel   x-rot acc   y-rot acc   z-rot acc
    22626 -2.21770E-01 1.19425E-03-6.85768E-03-2.70226E-02 4.25845E-04-2.50445E-04-2.62457E-04-1.98264E-04-2.69083E-05



 n o d a l   p r i n t   o u t   f o r   t i m e  s t e p   46005                              ( at time 2.2999698E+01 )

 nodal point  x-disp     y-disp      z-disp      x-vel       y-vel       z-vel      x-accl      y-accl      z-accl      x-coor      y-coor      z-coor
    22626 -3.93763E-01 2.86920E+01 2.06940E+01-6.30584E-02 1.86115E+00 9.81422E-01 7.12669E-03-6.22425E-02 4.98257E-02 4.26561E+00 5.01149E-01-2.42878E+01



 n o d a l   p r i n t   o u t   f o r   t i m e  s t e p   46005                              ( at time 2.2999698E+01 )

 nodal point  x-rot      y-rot       z-rot       x-rot vel   y-rot vel   z-rot vel   x-rot acc   y-rot acc   z-rot acc
    22626 -2.24473E-01 1.23745E-03-6.88298E-03-2.70561E-02 4.53606E-04-2.47299E-04-3.34916E-04 2.77637E-04 3.14641E-05



 n o d a l   p r i n t   o u t   f o r   t i m e  s t e p   46205                              ( at time 2.3099688E+01 )

 nodal point  x-disp     y-disp      z-disp      x-vel       y-vel       z-vel      x-accl      y-accl      z-accl      x-coor      y-coor      z-coor
    22626 -4.00055E-01 2.88777E+01 2.07924E+01-6.24348E-02 1.85439E+00 9.86476E-01 6.23660E-03-6.76349E-02 5.05414E-02 4.25932E+00 6.86880E-01-2.41893E+01



 n o d a l   p r i n t   o u t   f o r   t i m e  s t e p   46205                              ( at time 2.3099688E+01 )

 nodal point  x-rot      y-rot       z-rot       x-rot vel   y-rot vel   z-rot vel   x-rot acc   y-rot acc   z-rot acc
    22626 -2.27179E-01 1.28282E-03-6.90790E-03-2.70485E-02 4.45463E-04-2.53259E-04 7.59671E-05-8.14439E-05-5.96066E-05



 n o d a l   p r i n t   o u t   f o r   t i m e  s t e p   46405                              ( at time 2.3199678E+01 )

 nodal point  x-disp     y-disp      z-disp      x-vel       y-vel       z-vel      x-accl      y-accl      z-accl      x-coor      y-coor      z-coor
    22626 -4.06311E-01 2.90628E+01 2.08913E+01-6.27681E-02 1.84766E+00 9.91952E-01-3.33302E-03-6.72199E-02 5.47704E-02 4.25306E+00 8.71974E-01-2.40904E+01



 n o d a l   p r i n t   o u t   f o r   t i m e  s t e p   46405                              ( at time 2.3199678E+01 )

 nodal point  x-rot      y-rot       z-rot       x-rot vel   y-rot vel   z-rot vel   x-rot acc   y-rot acc   z-rot acc
    22626 -2.29883E-01 1.32490E-03-6.93357E-03-2.70461E-02 4.08282E-04-2.57677E-04 2.40862E-05-3.71843E-04-4.41778E-05



 n o d a l   p r i n t   o u t   f o r   t i m e  s t e p   46605                              ( at time 2.3299668E+01 )

 nodal point  x-disp     y-disp      z-disp      x-vel       y-vel       z-vel      x-accl      y-accl      z-accl      x-coor      y-coor      z-coor
    22626 -4.12587E-01 2.92472E+01 2.09908E+01-6.24583E-02 1.83993E+00 9.99500E-01 3.09796E-03-7.73444E-02 7.54899E-02 4.24679E+00 1.05634E+00-2.39909E+01



 n o d a l   p r i n t   o u t   f o r   t i m e  s t e p   46605                              ( at time 2.3299668E+01 )

 nodal point  x-rot      y-rot       z-rot       x-rot vel   y-rot vel   z-rot vel   x-rot acc   y-rot acc   z-rot acc
    22626 -2.32590E-01 1.36636E-03-6.95883E-03-2.70890E-02 4.21888E-04-2.50969E-04-4.29723E-04 1.36073E-04 6.70874E-05



 n o d a l   p r i n t   o u t   f o r   t i m e  s t e p   46805                              ( at time 2.3399658E+01 )

 nodal point  x-disp     y-disp      z-disp      x-vel       y-vel       z-vel      x-accl      y-accl      z-accl      x-coor      y-coor      z-coor
    22626 -4.18768E-01 2.94308E+01 2.10912E+01-6.15797E-02 1.83280E+00 1.00730E+00 8.78735E-03-7.13593E-02 7.80278E-02 4.24061E+00 1.23997E+00-2.38906E+01



 n o d a l   p r i n t   o u t   f o r   t i m e  s t e p   46805                              ( at time 2.3399658E+01 )

 nodal point  x-rot      y-rot       z-rot       x-rot vel   y-rot vel   z-rot vel   x-rot acc   y-rot acc   z-rot acc
    22626 -2.35297E-01 1.40934E-03-6.98440E-03-2.70677E-02 4.27875E-04-2.62125E-04 2.13553E-04 5.98735E-05-1.11572E-04



 n o d a l   p r i n t   o u t   f o r   t i m e  s t e p   47005                              ( at time 2.3499648E+01 )

 nodal point  x-disp     y-disp      z-disp      x-vel       y-vel       z-vel      x-accl      y-accl      z-accl      x-coor      y-coor      z-coor
    22626 -4.24930E-01 2.96137E+01 2.11923E+01-6.16299E-02 1.82509E+00 1.01554E+00-5.02141E-04-7.70282E-02 8.23967E-02 4.23445E+00 1.42284E+00-2.37894E+01



 n o d a l   p r i n t   o u t   f o r   t i m e  s t e p   47005                              ( at time 2.3499648E+01 )

 nodal point  x-rot      y-rot       z-rot       x-rot vel   y-rot vel   z-rot vel   x-rot acc   y-rot acc   z-rot acc
    22626 -2.38002E-01 1.45083E-03-7.01047E-03-2.70599E-02 4.03343E-04-2.56190E-04 7.72882E-05-2.45342E-04 5.93589E-05



 n o d a l   p r i n t   o u t   f o r   t i m e  s t e p   47205                              ( at time 2.3599638E+01 )

 nodal point  x-disp     y-disp      z-disp      x-vel       y-vel       z-vel      x-accl      y-accl      z-accl      x-coor      y-coor      z-coor
    22626 -4.31066E-01 2.97958E+01 2.12943E+01-6.11673E-02 1.81756E+00 1.02406E+00 4.62650E-03-7.53248E-02 8.51523E-02 4.22831E+00 1.60497E+00-2.36874E+01



 n o d a l   p r i n t   o u t   f o r   t i m e  s t e p   47205                              ( at time 2.3599638E+01 )

 nodal point  x-rot      y-rot       z-rot       x-rot vel   y-rot vel   z-rot vel   x-rot acc   y-rot acc   z-rot acc
    22626 -2.40708E-01 1.49029E-03-7.03635E-03-2.70684E-02 3.96743E-04-2.60298E-04-8.42568E-05-6.60046E-05-4.10878E-05



 n o d a l   p r i n t   o u t   f o r   t i m e  s t e p   47405                              ( at time 2.3699628E+01 )

 nodal point  x-disp     y-disp      z-disp      x-vel       y-vel       z-vel      x-accl      y-accl      z-accl      x-coor      y-coor      z-coor
    22626 -4.37178E-01 2.99771E+01 2.13972E+01-6.10575E-02 1.80941E+00 1.03487E+00 1.09783E-03-8.15383E-02 1.08201E-01 4.22220E+00 1.78629E+00-2.35845E+01



 n o d a l   p r i n t   o u t   f o r   t i m e  s t e p   47405                              ( at time 2.3699628E+01 )

 nodal point  x-rot      y-rot       z-rot       x-rot vel   y-rot vel   z-rot vel   x-rot acc   y-rot acc   z-rot acc
    22626 -2.43414E-01 1.53015E-03-7.06228E-03-2.70350E-02 4.01782E-04-2.62795E-04 3.34189E-04 5.03964E-05-2.49708E-05



 n o d a l   p r i n t   o u t   f o r   t i m e  s t e p   47605                              ( at time 2.3799618E+01 )

 nodal point  x-disp     y-disp      z-disp      x-vel       y-vel       z-vel      x-accl      y-accl      z-accl      x-coor      y-coor      z-coor
    22626 -4.43218E-01 3.01577E+01 2.15012E+01-5.99838E-02 1.80157E+00 1.04517E+00 1.07385E-02-7.83578E-02 1.02935E-01 4.21616E+00 1.96685E+00-2.34805E+01



 n o d a l   p r i n t   o u t   f o r   t i m e  s t e p   47605                              ( at time 2.3799618E+01 )

 nodal point  x-rot      y-rot       z-rot       x-rot vel   y-rot vel   z-rot vel   x-rot acc   y-rot acc   z-rot acc
    22626 -2.46116E-01 1.57023E-03-7.08847E-03-2.70161E-02 3.89461E-04-2.68855E-04 1.88390E-04-1.23226E-04-6.06044E-05



 n o d a l   p r i n t   o u t   f o r   t i m e  s t e p   47805                              ( at time 2.3899608E+01 )

 nodal point  x-disp     y-disp      z-disp      x-vel       y-vel       z-vel      x-accl      y-accl      z-accl      x-coor      y-coor      z-coor
    22626 -4.49228E-01 3.03374E+01 2.16062E+01-6.05821E-02 1.79438E+00 1.05578E+00-5.98407E-03-7.19637E-02 1.06150E-01 4.21015E+00 2.14662E+00-2.33755E+01



 n o d a l   p r i n t   o u t   f o r   t i m e  s t e p   47805                              ( at time 2.3899608E+01 )

 nodal point  x-rot      y-rot       z-rot       x-rot vel   y-rot vel   z-rot vel   x-rot acc   y-rot acc   z-rot acc
    22626 -2.48816E-01 1.60813E-03-7.11514E-03-2.69916E-02 3.75653E-04-2.61270E-04 2.44886E-04-1.38090E-04 7.58568E-05



 n o d a l   p r i n t   o u t   f o r   t i m e  s t e p   48005                              ( at time 2.3999598E+01 )

 nodal point  x-disp     y-disp      z-disp      x-vel       y-vel       z-vel      x-accl      y-accl      z-accl      x-coor      y-coor      z-coor
    22626 -4.55246E-01 3.05165E+01 2.17125E+01-5.95999E-02 1.78620E+00 1.06921E+00 9.82378E-03-8.17640E-02 1.34278E-01 4.20413E+00 2.32565E+00-2.32693E+01



 n o d a l   p r i n t   o u t   f o r   t i m e  s t e p   48005                              ( at time 2.3999598E+01 )

 nodal point  x-rot      y-rot       z-rot       x-rot vel   y-rot vel   z-rot vel   x-rot acc   y-rot acc   z-rot acc
    22626 -2.51514E-01 1.64546E-03-7.14164E-03-2.69584E-02 3.76031E-04-2.69301E-04 3.32221E-04 3.77984E-06-8.03279E-05



 n o d a l   p r i n t   o u t   f o r   t i m e  s t e p   48205                              ( at time 2.4099588E+01 )

 nodal point  x-disp     y-disp      z-disp      x-vel       y-vel       z-vel      x-accl      y-accl      z-accl      x-coor      y-coor      z-coor
    22626 -4.61184E-01 3.06946E+01 2.18200E+01-5.87604E-02 1.77795E+00 1.08083E+00 8.39552E-03-8.25159E-02 1.16268E-01 4.19819E+00 2.50381E+00-2.31617E+01



 n o d a l   p r i n t   o u t   f o r   t i m e  s t e p   48205                              ( at time 2.4099588E+01 )

 nodal point  x-rot      y-rot       z-rot       x-rot vel   y-rot vel   z-rot vel   x-rot acc   y-rot acc   z-rot acc
    22626 -2.54207E-01 1.68294E-03-7.16900E-03-2.69108E-02 3.73229E-04-2.75241E-04 4.76359E-04-2.80287E-05-5.94020E-05



 n o d a l   p r i n t   o u t   f o r   t i m e  s t e p   48405                              ( at time 2.4199578E+01 )

 nodal point  x-disp     y-disp      z-disp      x-vel       y-vel       z-vel      x-accl      y-accl      z-accl      x-coor      y-coor      z-coor
    22626 -4.67080E-01 3.08721E+01 2.19287E+01-5.94915E-02 1.77048E+00 1.09459E+00-7.31188E-03-7.47048E-02 1.37540E-01 4.19230E+00 2.68124E+00-2.30530E+01



 n o d a l   p r i n t   o u t   f o r   t i m e  s t e p   48405                              ( at time 2.4199578E+01 )

 nodal point  x-rot      y-rot       z-rot       x-rot vel   y-rot vel   z-rot vel   x-rot acc   y-rot acc   z-rot acc
    22626 -2.56896E-01 1.71995E-03-7.19571E-03-2.68604E-02 3.59202E-04-2.64159E-04 5.03398E-04-1.40279E-04 1.10838E-04



 n o d a l   p r i n t   o u t   f o r   t i m e  s t e p   48605                              ( at time 2.4299568E+01 )

 nodal point  x-disp     y-disp      z-disp      x-vel       y-vel       z-vel      x-accl      y-accl      z-accl      x-coor      y-coor      z-coor
    22626 -4.72960E-01 3.10487E+01 2.20390E+01-5.87535E-02 1.76247E+00 1.11059E+00 7.38070E-03-8.00969E-02 1.60106E-01 4.18642E+00 2.85789E+00-2.29428E+01



 n o d a l   p r i n t   o u t   f o r   t i m e  s t e p   48605                              ( at time 2.4299568E+01 )

 nodal point  x-rot      y-rot       z-rot       x-rot vel   y-rot vel   z-rot vel   x-rot acc   y-rot acc   z-rot acc
    22626 -2.59580E-01 1.75508E-03-7.22341E-03-2.68232E-02 3.44543E-04-2.81644E-04 3.72656E-04-1.46608E-04-1.74866E-04



 n o d a l   p r i n t   o u t   f o r   t i m e  s t e p   48805                              ( at time 2.4399558E+01 )

 nodal point  x-disp     y-disp      z-disp      x-vel       y-vel       z-vel      x-accl      y-accl      z-accl      x-coor      y-coor      z-coor
    22626 -4.78822E-01 3.12245E+01 2.21507E+01-5.75112E-02 1.75454E+00 1.12391E+00 1.24241E-02-7.93756E-02 1.33215E-01 4.18055E+00 3.03372E+00-2.28310E+01



 n o d a l   p r i n t   o u t   f o r   t i m e  s t e p   48805                              ( at time 2.4399558E+01 )

 nodal point  x-rot      y-rot       z-rot       x-rot vel   y-rot vel   z-rot vel   x-rot acc   y-rot acc   z-rot acc
    22626 -2.62258E-01 1.78983E-03-7.25091E-03-2.67500E-02 3.57777E-04-2.73544E-04 7.31490E-04 1.32353E-04 8.10069E-05



 n o d a l   p r i n t   o u t   f o r   t i m e  s t e p   49006                              ( at time 2.4500048E+01 )

 nodal point  x-disp     y-disp      z-disp      x-vel       y-vel       z-vel      x-accl      y-accl      z-accl      x-coor      y-coor      z-coor
    22626 -4.84600E-01 3.14005E+01 2.22644E+01-5.76168E-02 1.74739E+00 1.13939E+00-1.05098E-03-7.10852E-02 1.53954E-01 4.17478E+00 3.20966E+00-2.27173E+01



 n o d a l   p r i n t   o u t   f o r   t i m e  s t e p   49006                              ( at time 2.4500048E+01 )

 nodal point  x-rot      y-rot       z-rot       x-rot vel   y-rot vel   z-rot vel   x-rot acc   y-rot acc   z-rot acc
    22626 -2.64943E-01 1.82502E-03-7.27825E-03-2.66809E-02 3.40680E-04-2.78783E-04 6.87607E-04-1.70136E-04-5.21423E-05



 n o d a l   p r i n t   o u t   f o r   t i m e  s t e p   49206                              ( at time 2.4600038E+01 )

 nodal point  x-disp     y-disp      z-disp      x-vel       y-vel       z-vel      x-accl      y-accl      z-accl      x-coor      y-coor      z-coor
    22626 -4.90359E-01 3.15748E+01 2.23792E+01-5.81100E-02 1.73892E+00 1.15627E+00-4.93262E-03-8.46917E-02 1.68856E-01 4.16902E+00 3.38394E+00-2.26026E+01



 n o d a l   p r i n t   o u t   f o r   t i m e  s t e p   49206                              ( at time 2.4600038E+01 )

 nodal point  x-rot      y-rot       z-rot       x-rot vel   y-rot vel   z-rot vel   x-rot acc   y-rot acc   z-rot acc
    22626 -2.67608E-01 1.85822E-03-7.30669E-03-2.66140E-02 3.20912E-04-2.82995E-04 6.69440E-04-1.97703E-04-4.21174E-05



 n o d a l   p r i n t   o u t   f o r   t i m e  s t e p   49406                              ( at time 2.4700028E+01 )

 nodal point  x-disp     y-disp      z-disp      x-vel       y-vel       z-vel      x-accl      y-accl      z-accl      x-coor      y-coor      z-coor
    22626 -4.96101E-01 3.17483E+01 2.24956E+01-5.64524E-02 1.73102E+00 1.17232E+00 1.65782E-02-7.90564E-02 1.60570E-01 4.16327E+00 3.55744E+00-2.24861E+01



 n o d a l   p r i n t   o u t   f o r   t i m e  s t e p   49406                              ( at time 2.4700028E+01 )

 nodal point  x-rot      y-rot       z-rot       x-rot vel   y-rot vel   z-rot vel   x-rot acc   y-rot acc   z-rot acc
    22626 -2.70265E-01 1.89040E-03-7.33462E-03-2.65411E-02 3.23806E-04-2.78918E-04 7.29586E-04 2.89475E-05 4.07691E-05



 n o d a l   p r i n t   o u t   f o r   t i m e  s t e p   49606                              ( at time 2.4800018E+01 )

 nodal point  x-disp     y-disp      z-disp      x-vel       y-vel       z-vel      x-accl      y-accl      z-accl      x-coor      y-coor      z-coor
    22626 -5.01729E-01 3.19210E+01 2.26136E+01-5.63463E-02 1.72357E+00 1.18782E+00 1.06106E-03-7.45269E-02 1.54965E-01 4.15765E+00 3.73015E+00-2.23682E+01



 n o d a l   p r i n t   o u t   f o r   t i m e  s t e p   49606                              ( at time 2.4800018E+01 )

 nodal point  x-rot      y-rot       z-rot       x-rot vel   y-rot vel   z-rot vel   x-rot acc   y-rot acc   z-rot acc
    22626 -2.72916E-01 1.92216E-03-7.36290E-03-2.64605E-02 3.18558E-04-2.86842E-04 8.05500E-04-5.24883E-05-7.92416E-05



 n o d a l   p r i n t   o u t   f o r   t i m e  s t e p   49806                              ( at time 2.4900008E+01 )

 nodal point  x-disp     y-disp      z-disp      x-vel       y-vel       z-vel      x-accl      y-accl      z-accl      x-coor      y-coor      z-coor
    22626 -5.07357E-01 3.20929E+01 2.27332E+01-5.62841E-02 1.71625E+00 1.20491E+00 6.22565E-04-7.31847E-02 1.70873E-01 4.15202E+00 3.90212E+00-2.22485E+01



 n o d a l   p r i n t   o u t   f o r   t i m e  s t e p   49806                              ( at time 2.4900008E+01 )

 nodal point  x-rot      y-rot       z-rot       x-rot vel   y-rot vel   z-rot vel   x-rot acc   y-rot acc   z-rot acc
    22626 -2.75558E-01 1.95334E-03-7.39221E-03-2.63792E-02 3.02036E-04-2.98000E-04 8.12948E-04-1.65230E-04-1.11592E-04



 n o d a l   p r i n t   o u t   f o r   t i m e  s t e p   50006                              ( at time 2.4999998E+01 )

 nodal point  x-disp     y-disp      z-disp      x-vel       y-vel       z-vel      x-accl      y-accl      z-accl      x-coor      y-coor      z-coor
    22626 -5.12978E-01 3.22642E+01 2.28545E+01-5.54556E-02 1.70778E+00 1.22101E+00 8.28524E-03-8.47155E-02 1.61041E-01 4.14640E+00 4.07333E+00-2.21272E+01



 n o d a l   p r i n t   o u t   f o r   t i m e  s t e p   50006                              ( at time 2.4999998E+01 )

 nodal point  x-rot      y-rot       z-rot       x-rot vel   y-rot vel   z-rot vel   x-rot acc   y-rot acc   z-rot acc
    22626 -2.78192E-01 1.98288E-03-7.42166E-03-2.63083E-02 2.83057E-04-3.00377E-04 7.09137E-04-1.89812E-04-2.37751E-05
