 LSTC 50th% Full_FE H-III Dummy (Beta Version, February 17, 2019)        
                    ls-dyna smp s R16 R16.0_619_d222963 date 03/18/2025

{BEGIN LEGEND}
 Entity #        Title
        1     Upper_Neck_Force_INJURY                                              
{END LEGEND}



 line#1  section#     time        x-force     y-force     z-force    magnitude
 line#2  resultant  moments       x-moment    y-moment    z-moment   magnitude
 line#3  centroids                x           y           z            area  
           1    0.00000E+00     0.0000E+00  0.0000E+00  0.0000E+00  0.0000E+00
ac ID =   33377                 0.0000E+00  0.0000E+00  0.0000E+00  0.0000E+00
                               -3.7437E-01  1.0501E+01 -4.6940E+01  0.0000E+00

           1    1.00490E-01     1.3157E-04 -4.9882E-03  2.5982E-01  2.5987E-01
ac ID =   33377                 4.2542E-01 -1.2521E+00 -2.7096E-02  1.3227E+00
                               -3.7387E-01  1.0590E+01 -4.6886E+01  2.5147E+03

           1    2.00480E-01    -4.4256E-02  4.9430E-04  4.4119E-01  4.4341E-01
ac ID =   33377                 3.0957E-01 -1.5965E+00  2.0209E-02  1.6264E+00
                               -3.7386E-01  1.0591E+01 -4.6888E+01  2.5147E+03

           1    3.00470E-01     1.4759E-02 -3.2893E-03  2.1751E-01  2.1804E-01
ac ID =   33377                 2.5773E-02 -3.3544E-01  6.4668E-02  3.4259E-01
                               -3.7382E-01  1.0591E+01 -4.6889E+01  2.5147E+03

           1    4.00460E-01     2.7735E-03  1.0638E-02  8.7564E-02  8.8251E-02
ac ID =   33377                -4.9413E-01 -9.4085E-01  2.7283E-03  1.0627E+00
                               -3.7383E-01  1.0592E+01 -4.6890E+01  2.5147E+03

           1    5.00450E-01    -4.0817E-02  4.2498E-03  1.6214E-01  1.6725E-01
ac ID =   33377                -3.9857E-01 -1.5040E+00 -1.0680E-01  1.5596E+00
                               -3.7385E-01  1.0594E+01 -4.6893E+01  2.5147E+03

           1    6.00440E-01    -1.0740E-02  3.8944E-03  3.4331E-01  3.4350E-01
ac ID =   33377                 9.4154E-02 -1.3205E+00 -3.2478E-02  1.3243E+00
                               -3.7385E-01  1.0595E+01 -4.6897E+01  2.5147E+03

           1    7.00430E-01     2.7881E-03 -5.3485E-03  2.9423E-01  2.9429E-01
ac ID =   33377                 1.4239E-01 -5.0709E-01  8.3760E-02  5.3332E-01
                               -3.7389E-01  1.0597E+01 -4.6901E+01  2.5147E+03

           1    8.00420E-01    -3.0940E-02 -1.0428E-03  1.0101E-01  1.0565E-01
ac ID =   33377                 8.6417E-02 -1.0580E+00  4.4514E-02  1.0625E+00
                               -3.7394E-01  1.0599E+01 -4.6905E+01  2.5147E+03

           1    9.00410E-01    -3.9202E-02  1.1508E-03  6.2104E-02  7.3451E-02
ac ID =   33377                 9.1159E-02 -1.0684E+00 -3.4052E-03  1.0723E+00
                               -3.7399E-01  1.0601E+01 -4.6909E+01  2.5147E+03

           1    1.00040E+00     1.4941E-02 -3.7458E-03  2.2076E-01  2.2130E-01
ac ID =   33377                 3.6530E-01 -2.8595E-01 -6.9482E-02  4.6908E-01
                               -3.7400E-01  1.0604E+01 -4.6915E+01  2.5147E+03

           1    1.10039E+00     4.4814E-04 -2.8087E-03  2.7094E-01  2.7096E-01
ac ID =   33377                 3.4660E-01 -8.8417E-01 -5.2560E-02  9.5114E-01
                               -3.7401E-01  1.0607E+01 -4.6921E+01  2.5147E+03

           1    1.20038E+00    -3.2424E-02 -4.6305E-04  1.2931E-01  1.3331E-01
ac ID =   33377                -1.5127E-01 -1.1795E+00  9.6612E-03  1.1892E+00
                               -3.7403E-01  1.0610E+01 -4.6927E+01  2.5147E+03

           1    1.30037E+00    -1.0248E-02  4.6918E-03  7.5043E-02  7.5885E-02
ac ID =   33377                -3.0227E-01 -8.8960E-01  1.3370E-02  9.3965E-01
                               -3.7407E-01  1.0612E+01 -4.6933E+01  2.5147E+03

           1    1.40036E+00     7.6990E-03  3.5521E-03  1.7315E-01  1.7335E-01
ac ID =   33377                -2.9125E-01 -8.3258E-01  3.1754E-02  8.8263E-01
                               -3.7409E-01  1.0616E+01 -4.6941E+01  2.5147E+03

           1    1.50035E+00    -2.7120E-02  8.9982E-04  3.2871E-01  3.2982E-01
ac ID =   33377                -1.4902E-02 -1.5781E+00 -4.2994E-02  1.5787E+00
                               -3.7413E-01  1.0620E+01 -4.6949E+01  2.5147E+03

           1    1.60034E+00    -1.8982E-02 -2.0469E-03  2.2070E-01  2.2153E-01
ac ID =   33377                -2.2860E-02 -1.3696E+00 -1.9849E-02  1.3699E+00
                               -3.7420E-01  1.0624E+01 -4.6957E+01  2.5147E+03

           1    1.70033E+00    -2.9466E-03 -6.6058E-04  5.9011E-02  5.9088E-02
ac ID =   33377                -4.4478E-02 -6.7569E-01  8.6629E-02  6.8267E-01
                               -3.7427E-01  1.0627E+01 -4.6965E+01  2.5147E+03

           1    1.80032E+00    -2.0264E-02  1.1414E-03  7.7446E-02  8.0061E-02
ac ID =   33377                 8.7989E-02 -1.1137E+00  1.2243E-01  1.1239E+00
                               -3.7434E-01  1.0632E+01 -4.6974E+01  2.5147E+03

           1    1.90031E+00    -8.5276E-03 -1.9231E-03  1.9216E-01  1.9236E-01
ac ID =   33377                 2.7111E-01 -8.3522E-01 -6.1140E-02  8.8025E-01
                               -3.7439E-01  1.0636E+01 -4.6984E+01  2.5147E+03

           1    2.00030E+00    -2.6267E-03 -4.1037E-03  1.5787E-01  1.5794E-01
ac ID =   33377                 2.0324E-01 -4.6661E-01 -1.3044E-01  5.2540E-01
                               -3.7444E-01  1.0641E+01 -4.6993E+01  2.5147E+03

           1    2.10029E+00    -2.6640E-02  4.0543E-03  5.7567E-03  2.7554E-02
ac ID =   33377                -8.2029E-02 -7.6055E-01  7.2711E-02  7.6841E-01
                               -3.7450E-01  1.0645E+01 -4.7003E+01  2.5147E+03

           1    2.20028E+00    -1.3279E-02  7.2195E-03  5.5242E-03  1.6092E-02
ac ID =   33377                -2.9032E-01 -6.7635E-01  3.6610E-02  7.3694E-01
                               -3.7454E-01  1.0650E+01 -4.7013E+01  2.5147E+03

           1    2.30027E+00    -1.1559E-03  5.4076E-03  1.5180E-01  1.5190E-01
ac ID =   33377                -1.8237E-01 -8.5603E-01 -6.9441E-02  8.7799E-01
                               -3.7458E-01  1.0655E+01 -4.7024E+01  2.5147E+03

           1    2.40026E+00    -1.9519E-02 -2.1151E-03  1.9166E-01  1.9267E-01
ac ID =   33377                -1.7614E-01 -1.2511E+00  6.0520E-02  1.2649E+00
                               -3.7463E-01  1.0660E+01 -4.7034E+01  2.5147E+03

           1    2.50025E+00    -1.9854E-02  2.4412E-03  4.1340E-03  2.0426E-02
ac ID =   33377                -2.4347E-01 -9.7023E-01  1.4586E-01  1.0109E+00
                               -3.7469E-01  1.0665E+01 -4.7045E+01  2.5147E+03

           1    2.60024E+00    -7.8997E-03  8.3280E-03 -6.8625E-02  6.9578E-02
ac ID =   33377                -3.0003E-01 -3.2837E-01  6.1627E-02  4.4905E-01
                               -3.7475E-01  1.0670E+01 -4.7055E+01  2.5147E+03

           1    2.70023E+00    -1.0640E-02 -1.3888E-03  1.0744E-02  1.5184E-02
ac ID =   33377                -1.6163E-03 -2.3202E-01  1.6431E-02  2.3261E-01
                               -3.7479E-01  1.0675E+01 -4.7067E+01  2.5147E+03

           1    2.80022E+00    -9.8382E-03 -4.7845E-03  6.6227E-02  6.7124E-02
ac ID =   33377                 3.0500E-01 -2.1496E-01  3.3861E-03  3.7315E-01
                               -3.7481E-01  1.0681E+01 -4.7078E+01  2.5147E+03

           1    2.90021E+00     2.8165E-03 -1.3356E-03 -4.2029E-03  5.2327E-03
ac ID =   33377                 5.4177E-02  2.3370E-01 -9.6694E-02  2.5865E-01
                               -3.7484E-01  1.0686E+01 -4.7089E+01  2.5147E+03

           1    3.00020E+00    -9.2215E-03  3.9155E-04 -7.9859E-02  8.0391E-02
ac ID =   33377                 9.0433E-03 -7.5210E-02 -1.3104E-01  1.5136E-01
                               -3.7486E-01  1.0691E+01 -4.7100E+01  2.5147E+03

           1    3.10019E+00    -5.8681E-03  1.7224E-03 -1.2385E-04  6.1169E-03
ac ID =   33377                -4.6486E-02 -4.7595E-01 -5.6103E-02  4.8149E-01
                               -3.7485E-01  1.0696E+01 -4.7112E+01  2.5147E+03

           1    3.20018E+00     3.4601E-03  2.2270E-03  7.3867E-02  7.3981E-02
ac ID =   33377                -2.8119E-02 -4.4478E-01  3.3773E-02  4.4694E-01
                               -3.7486E-01  1.0701E+01 -4.7123E+01  2.5147E+03

           1    3.30017E+00    -1.0186E-03 -2.6256E-03  1.6189E-02  1.6432E-02
ac ID =   33377                -2.1865E-01 -4.2804E-01  4.8962E-02  4.8314E-01
                               -3.7489E-01  1.0706E+01 -4.7134E+01  2.5147E+03

           1    3.40016E+00    -4.5385E-03  2.3227E-03 -9.2172E-02  9.2313E-02
ac ID =   33377                -2.7203E-01 -1.6701E-01  4.5680E-02  3.2246E-01
                               -3.7495E-01  1.0711E+01 -4.7145E+01  2.5147E+03

           1    3.50015E+00    -6.6463E-03  7.1179E-03 -1.2193E-01  1.2232E-01
ac ID =   33377                -2.4220E-01  1.1920E-01 -3.0820E-02  2.7170E-01
                               -3.7503E-01  1.0716E+01 -4.7157E+01  2.5147E+03

           1    3.60014E+00     4.8610E-03  5.2897E-04 -4.7261E-02  4.7513E-02
ac ID =   33377                 1.3902E-01  5.7958E-01 -1.1817E-01  6.0762E-01
                               -3.7510E-01  1.0721E+01 -4.7168E+01  2.5147E+03

           1    3.70013E+00     5.7061E-03 -5.6509E-03 -4.2150E-02  4.2908E-02
ac ID =   33377                 2.9606E-01  6.6776E-01 -4.4027E-02  7.3177E-01
                               -3.7513E-01  1.0726E+01 -4.7180E+01  2.5147E+03

           1    3.80012E+00     1.6789E-03 -3.6353E-03 -1.1864E-01  1.1871E-01
ac ID =   33377                 2.2272E-01  8.0698E-01 -4.8593E-02  8.3856E-01
                               -3.7520E-01  1.0731E+01 -4.7190E+01  2.5147E+03

           1    3.90011E+00     1.3178E-02  4.5909E-03 -1.8168E-01  1.8222E-01
ac ID =   33377                -5.3517E-03  1.0388E+00 -1.0593E-01  1.0442E+00
                               -3.7525E-01  1.0735E+01 -4.7201E+01  2.5147E+03

           1    4.00010E+00     7.9638E-03  2.1311E-03 -1.2915E-01  1.2941E-01
ac ID =   33377                -2.6789E-01  5.6875E-01 -8.2878E-02  6.3412E-01
                               -3.7523E-01  1.0740E+01 -4.7212E+01  2.5147E+03

           1    4.10009E+00     8.3907E-03 -1.0289E-02 -9.8792E-02  9.9680E-02
ac ID =   33377                -1.5592E-02  4.3685E-01 -1.8564E-01  4.7492E-01
                               -3.7521E-01  1.0744E+01 -4.7223E+01  2.5147E+03

           1    4.20008E+00     9.3672E-03  6.4521E-03 -1.5118E-01  1.5161E-01
ac ID =   33377                -4.0214E-01  7.0781E-01  4.9109E-02  8.1555E-01
                               -3.7521E-01  1.0748E+01 -4.7233E+01  2.5147E+03

           1    4.30007E+00     2.1229E-02  8.0116E-03 -2.5336E-01  2.5438E-01
ac ID =   33377                -4.1632E-01  1.1836E+00  1.0102E-01  1.2587E+00
                               -3.7522E-01  1.0753E+01 -4.7243E+01  2.5147E+03

           1    4.40006E+00     3.5981E-02  4.5821E-03 -2.2801E-01  2.3088E-01
ac ID =   33377                -1.6307E-01  1.6347E+00 -4.4480E-02  1.6435E+00
                               -3.7522E-01  1.0757E+01 -4.7254E+01  2.5147E+03

           1    4.50005E+00     3.6536E-02 -4.7647E-04 -1.5350E-01  1.5778E-01
ac ID =   33377                 1.7771E-01  1.4796E+00 -8.7402E-02  1.4928E+00
                               -3.7519E-01  1.0762E+01 -4.7264E+01  2.5147E+03

           1    4.60004E+00     5.6712E-02 -7.4798E-04 -2.1561E-01  2.2295E-01
ac ID =   33377                 1.5115E-01  1.8420E+00 -1.1149E-01  1.8516E+00
                               -3.7517E-01  1.0768E+01 -4.7274E+01  2.5147E+03

           1    4.70003E+00     6.4831E-02  3.1967E-03 -3.1294E-01  3.1960E-01
ac ID =   33377                 1.2354E-01  2.0301E+00 -6.8371E-02  2.0350E+00
                               -3.7513E-01  1.0774E+01 -4.7283E+01  2.5147E+03

           1    4.80002E+00     7.8646E-02  3.2956E-03 -3.6264E-01  3.7108E-01
ac ID =   33377                -6.1815E-02  2.2617E+00  6.7787E-02  2.2636E+00
                               -3.7505E-01  1.0781E+01 -4.7293E+01  2.5147E+03

           1    4.90001E+00     9.2472E-02  2.8435E-03 -3.1655E-01  3.2979E-01
ac ID =   33377                -4.0580E-02  2.5391E+00  1.6457E-01  2.5448E+00
                               -3.7498E-01  1.0790E+01 -4.7304E+01  2.5147E+03

           1    5.00000E+00     8.9623E-02  2.9385E-03 -3.0293E-01  3.1592E-01
ac ID =   33377                -3.6891E-01  2.5246E+00  1.2120E-01  2.5543E+00
                               -3.7490E-01  1.0800E+01 -4.7314E+01  2.5147E+03

           1    5.10049E+00     1.0816E-01  1.1159E-02 -4.1539E-01  4.2938E-01
ac ID =   33377                -4.8855E-01  3.0779E+00  1.1568E-01  3.1185E+00
                               -3.7481E-01  1.0812E+01 -4.7324E+01  2.5147E+03

           1    5.20048E+00     1.1919E-01  6.7454E-03 -4.7178E-01  4.8665E-01
ac ID =   33377                -3.6032E-01  3.3336E+00 -2.2459E-02  3.3531E+00
                               -3.7474E-01  1.0826E+01 -4.7335E+01  2.5147E+03

           1    5.30047E+00     1.4327E-01  7.2898E-03 -4.7338E-01  4.9464E-01
ac ID =   33377                -4.4331E-01  3.9478E+00  6.2814E-02  3.9731E+00
                               -3.7464E-01  1.0842E+01 -4.7346E+01  2.5147E+03

           1    5.40046E+00     1.4101E-01  3.2364E-03 -4.6925E-01  4.8999E-01
ac ID =   33377                -1.9286E-01  4.1508E+00  9.8891E-02  4.1564E+00
                               -3.7449E-01  1.0861E+01 -4.7358E+01  2.5147E+03

           1    5.50045E+00     1.6125E-01 -3.0455E-03 -5.7429E-01  5.9650E-01
ac ID =   33377                 6.1862E-02  4.5936E+00 -1.9405E-01  4.5981E+00
                               -3.7440E-01  1.0882E+01 -4.7369E+01  2.5147E+03

           1    5.60044E+00     1.7081E-01  9.7050E-03 -6.7426E-01  6.9562E-01
ac ID =   33377                -2.7542E-01  5.0897E+00 -4.4134E-02  5.0973E+00
                               -3.7427E-01  1.0906E+01 -4.7382E+01  2.5147E+03

           1    5.70043E+00     1.7940E-01  7.2220E-03 -7.1752E-01  7.3965E-01
ac ID =   33377                -3.6548E-01  5.2207E+00 -1.7116E-02  5.2336E+00
                               -3.7409E-01  1.0933E+01 -4.7395E+01  2.5147E+03

           1    5.80042E+00     1.9134E-01  2.2691E-03 -6.9358E-01  7.1949E-01
ac ID =   33377                -1.2522E-01  5.5882E+00  6.0992E-02  5.5899E+00
                               -3.7393E-01  1.0964E+01 -4.7409E+01  2.5147E+03

           1    5.90041E+00     1.9526E-01  5.6151E-03 -7.1647E-01  7.4262E-01
ac ID =   33377                -3.3671E-01  5.7826E+00  2.1004E-01  5.7962E+00
                               -3.7374E-01  1.0998E+01 -4.7423E+01  2.5147E+03

           1    6.00040E+00     2.1629E-01  1.2311E-02 -8.3031E-01  8.5811E-01
ac ID =   33377                -7.2725E-01  6.4310E+00  2.6467E-02  6.4720E+00
                               -3.7355E-01  1.1035E+01 -4.7438E+01  2.5147E+03

           1    6.10039E+00     2.3005E-01  1.5104E-02 -8.6820E-01  8.9829E-01
ac ID =   33377                -5.9690E-01  6.6417E+00 -1.9080E-01  6.6712E+00
                               -3.7335E-01  1.1076E+01 -4.7454E+01  2.5147E+03

           1    6.20038E+00     2.3118E-01  1.2070E-04 -8.6470E-01  8.9507E-01
ac ID =   33377                -4.5059E-01  6.6785E+00 -1.9219E-01  6.6965E+00
                               -3.7310E-01  1.1122E+01 -4.7471E+01  2.5147E+03

           1    6.30037E+00     2.3433E-01  5.5854E-03 -9.1750E-01  9.4697E-01
ac ID =   33377                -4.2148E-01  6.9327E+00 -5.2462E-02  6.9457E+00
                               -3.7288E-01  1.1171E+01 -4.7488E+01  2.5147E+03

           1    6.40036E+00     2.5700E-01  1.8596E-02 -1.0500E+00  1.0811E+00
ac ID =   33377                -7.1777E-01  7.8063E+00  1.1800E-01  7.8401E+00
                               -3.7266E-01  1.1225E+01 -4.7507E+01  2.5147E+03

           1    6.50035E+00     2.6508E-01 -1.6440E-03 -1.1432E+00  1.1735E+00
ac ID =   33377                -2.6128E-01  8.5403E+00  1.7013E-01  8.5460E+00
                               -3.7237E-01  1.1283E+01 -4.7526E+01  2.5147E+03

           1    6.60034E+00     2.6352E-01  1.0697E-03 -1.1580E+00  1.1876E+00
ac ID =   33377                -3.4572E-01  8.6616E+00  2.9297E-01  8.6735E+00
                               -3.7209E-01  1.1346E+01 -4.7547E+01  2.5147E+03

           1    6.70033E+00     2.9099E-01  1.3364E-02 -1.2019E+00  1.2367E+00
ac ID =   33377                -8.0148E-01  9.4850E+00  1.0470E-01  9.5194E+00
                               -3.7179E-01  1.1413E+01 -4.7568E+01  2.5147E+03

           1    6.80032E+00     2.9397E-01  1.2959E-03 -1.2761E+00  1.3096E+00
ac ID =   33377                -3.7908E-01  9.8673E+00 -9.0035E-02  9.8750E+00
                               -3.7145E-01  1.1484E+01 -4.7591E+01  2.5147E+03

           1    6.90031E+00     2.9154E-01  1.2021E-02 -1.3851E+00  1.4155E+00
ac ID =   33377                -8.0944E-01  1.0206E+01 -3.7736E-02  1.0238E+01
                               -3.7111E-01  1.1561E+01 -4.7614E+01  2.5147E+03

           1    7.00030E+00     3.0602E-01  7.8021E-03 -1.4402E+00  1.4723E+00
ac ID =   33377                -7.5220E-01  1.0648E+01 -6.7661E-03  1.0675E+01
                               -3.7076E-01  1.1642E+01 -4.7638E+01  2.5147E+03

           1    7.10029E+00     3.3199E-01  1.5668E-02 -1.4895E+00  1.5262E+00
ac ID =   33377                -1.0123E+00  1.1309E+01  6.2840E-02  1.1355E+01
                               -3.7037E-01  1.1728E+01 -4.7663E+01  2.5147E+03

           1    7.20028E+00     3.1191E-01  6.4545E-03 -1.6057E+00  1.6357E+00
ac ID =   33377                -5.7207E-01  1.1466E+01 -9.7800E-02  1.1481E+01
                               -3.6999E-01  1.1818E+01 -4.7688E+01  2.5147E+03

           1    7.30027E+00     3.3036E-01  6.9495E-03 -1.7436E+00  1.7747E+00
ac ID =   33377                -7.2167E-01  1.2448E+01 -1.1837E-01  1.2470E+01
                               -3.6954E-01  1.1913E+01 -4.7714E+01  2.5147E+03

           1    7.40026E+00     3.6452E-01  1.5822E-02 -1.8254E+00  1.8615E+00
ac ID =   33377                -8.0688E-01  1.3735E+01 -4.6748E-02  1.3759E+01
                               -3.6910E-01  1.2013E+01 -4.7741E+01  2.5147E+03

           1    7.50025E+00     3.5856E-01 -9.6526E-04 -1.8628E+00  1.8970E+00
ac ID =   33377                -3.0511E-01  1.4069E+01  1.4748E-01  1.4073E+01
                               -3.6860E-01  1.2117E+01 -4.7768E+01  2.5147E+03

           1    7.60024E+00     3.6779E-01  1.0206E-02 -1.9397E+00  1.9743E+00
ac ID =   33377                -6.5891E-01  1.4766E+01  1.3471E-01  1.4781E+01
                               -3.6805E-01  1.2226E+01 -4.7796E+01  2.5147E+03

           1    7.70023E+00     3.8560E-01  1.0352E-02 -2.0385E+00  2.0747E+00
ac ID =   33377                -6.8588E-01  1.5472E+01 -1.7545E-01  1.5488E+01
                               -3.6748E-01  1.2340E+01 -4.7823E+01  2.5147E+03

           1    7.80022E+00     3.8119E-01  5.0694E-03 -2.1331E+00  2.1669E+00
ac ID =   33377                -7.4701E-01  1.5760E+01 -1.4153E-01  1.5779E+01
                               -3.6685E-01  1.2458E+01 -4.7851E+01  2.5147E+03

           1    7.90021E+00     3.9166E-01  4.7028E-03 -2.1854E+00  2.2202E+00
ac ID =   33377                -6.8980E-01  1.6390E+01 -2.2600E-01  1.6406E+01
                               -3.6619E-01  1.2580E+01 -4.7879E+01  2.5147E+03

           1    8.00020E+00     4.2187E-01  1.4444E-02 -2.2868E+00  2.3255E+00
ac ID =   33377                -9.2778E-01  1.7434E+01 -6.0173E-02  1.7459E+01
                               -3.6550E-01  1.2707E+01 -4.7906E+01  2.5147E+03

           1    8.10019E+00     4.1972E-01  4.1956E-03 -2.4389E+00  2.4748E+00
ac ID =   33377                -7.4453E-01  1.8744E+01  2.7967E-01  1.8761E+01
                               -3.6479E-01  1.2838E+01 -4.7933E+01  2.5147E+03

           1    8.20018E+00     4.2811E-01  4.5683E-03 -2.5548E+00  2.5904E+00
ac ID =   33377                -5.3338E-01  1.9652E+01  3.1366E-01  1.9662E+01
                               -3.6405E-01  1.2973E+01 -4.7960E+01  2.5147E+03

           1    8.30017E+00     4.5408E-01  3.7191E-04 -2.6321E+00  2.6710E+00
ac ID =   33377                -4.2760E-01  2.0819E+01  1.9789E-01  2.0824E+01
                               -3.6322E-01  1.3112E+01 -4.7987E+01  2.5147E+03

           1    8.40016E+00     4.7474E-01  8.9124E-03 -2.7113E+00  2.7525E+00
ac ID =   33377                -4.8357E-01  2.1984E+01  2.3070E-02  2.1989E+01
                               -3.6235E-01  1.3255E+01 -4.8012E+01  2.5147E+03

           1    8.50015E+00     4.6978E-01  1.6997E-03 -2.8379E+00  2.8765E+00
ac ID =   33377                -4.4257E-01  2.2833E+01 -1.3547E-01  2.2838E+01
                               -3.6142E-01  1.3401E+01 -4.8037E+01  2.5147E+03

           1    8.60014E+00     4.8465E-01  7.2941E-03 -2.9656E+00  3.0050E+00
ac ID =   33377                -6.7698E-01  2.4036E+01 -3.3851E-02  2.4046E+01
                               -3.6042E-01  1.3552E+01 -4.8061E+01  2.5147E+03

           1    8.70013E+00     4.9841E-01  7.8338E-03 -3.0618E+00  3.1021E+00
ac ID =   33377                -7.2751E-01  2.4899E+01  3.4347E-02  2.4909E+01
                               -3.5937E-01  1.3706E+01 -4.8083E+01  2.5147E+03

           1    8.80012E+00     5.0553E-01  9.7237E-03 -3.1596E+00  3.1998E+00
ac ID =   33377                -8.6033E-01  2.5644E+01  4.7230E-03  2.5659E+01
                               -3.5825E-01  1.3863E+01 -4.8105E+01  2.5147E+03

           1    8.90011E+00     5.3040E-01  9.8840E-03 -3.2735E+00  3.3162E+00
ac ID =   33377                -8.4087E-01  2.7071E+01 -1.1073E-01  2.7084E+01
                               -3.5711E-01  1.4023E+01 -4.8125E+01  2.5147E+03

           1    9.00010E+00     5.3486E-01  8.3079E-03 -3.3952E+00  3.4371E+00
ac ID =   33377                -6.7922E-01  2.8410E+01 -9.1026E-02  2.8418E+01
                               -3.5590E-01  1.4187E+01 -4.8143E+01  2.5147E+03

           1    9.10009E+00     5.5140E-01  6.1023E-03 -3.4936E+00  3.5369E+00
ac ID =   33377                -6.2895E-01  2.9676E+01 -5.2277E-03  2.9683E+01
                               -3.5463E-01  1.4354E+01 -4.8159E+01  2.5147E+03

           1    9.20008E+00     5.6262E-01  5.7819E-03 -3.5680E+00  3.6121E+00
ac ID =   33377                -5.2927E-01  3.0822E+01  1.2944E-01  3.0827E+01
                               -3.5332E-01  1.4523E+01 -4.8173E+01  2.5147E+03

           1    9.30007E+00     5.7474E-01 -1.9696E-03 -3.6622E+00  3.7070E+00
ac ID =   33377                -2.4695E-01  3.1683E+01  1.6263E-02  3.1684E+01
                               -3.5192E-01  1.4695E+01 -4.8185E+01  2.5147E+03

           1    9.40006E+00     5.7138E-01  6.6180E-03 -3.7784E+00  3.8213E+00
ac ID =   33377                -6.4570E-01  3.2656E+01 -2.8261E-01  3.2663E+01
                               -3.5047E-01  1.4869E+01 -4.8194E+01  2.5147E+03

           1    9.50005E+00     5.8241E-01 -6.5735E-05 -3.8585E+00  3.9022E+00
ac ID =   33377                -8.2285E-01  3.3881E+01 -2.9851E-01  3.3893E+01
                               -3.4899E-01  1.5045E+01 -4.8201E+01  2.5147E+03

           1    9.60004E+00     6.0949E-01  5.7829E-03 -3.9550E+00  4.0017E+00
ac ID =   33377                -8.0496E-01  3.5513E+01 -1.0285E-01  3.5522E+01
                               -3.4751E-01  1.5224E+01 -4.8204E+01  2.5147E+03

           1    9.70003E+00     6.1154E-01  1.0987E-02 -4.0328E+00  4.0789E+00
ac ID =   33377                -9.0779E-01  3.6864E+01  2.0096E-01  3.6875E+01
                               -3.4595E-01  1.5404E+01 -4.8205E+01  2.5147E+03

           1    9.80002E+00     6.1789E-01  9.5641E-03 -4.0940E+00  4.1404E+00
ac ID =   33377                -1.0904E+00  3.7793E+01  3.3035E-01  3.7810E+01
                               -3.4434E-01  1.5586E+01 -4.8202E+01  2.5147E+03

           1    9.90001E+00     6.4693E-01 -4.3482E-03 -4.2053E+00  4.2548E+00
ac ID =   33377                -5.9576E-01  3.9591E+01 -2.4845E-02  3.9596E+01
                               -3.4280E-01  1.5770E+01 -4.8196E+01  2.5147E+03

           1    1.00005E+01     6.3144E-01  1.0805E-02 -4.2819E+00  4.3282E+00
ac ID =   33377                -8.9654E-01  4.0505E+01 -2.4963E-01  4.0515E+01
                               -3.4116E-01  1.5956E+01 -4.8187E+01  2.5147E+03

           1    1.01005E+01     6.3130E-01 -2.5996E-03 -4.3540E+00  4.3995E+00
ac ID =   33377                -7.5055E-01  4.1376E+01 -1.0803E-01  4.1383E+01
                               -3.3948E-01  1.6142E+01 -4.8173E+01  2.5147E+03

           1    1.02005E+01     6.4919E-01  9.9718E-03 -4.4436E+00  4.4908E+00
ac ID =   33377                -4.9736E-01  4.2997E+01 -1.5187E-01  4.3000E+01
                               -3.3783E-01  1.6329E+01 -4.8155E+01  2.5147E+03

           1    1.03005E+01     6.6232E-01  2.3517E-03 -4.5066E+00  4.5550E+00
ac ID =   33377                -8.4942E-01  4.3980E+01 -2.0713E-01  4.3988E+01
                               -3.3603E-01  1.6516E+01 -4.8133E+01  2.5147E+03

           1    1.04005E+01     6.6087E-01  1.9753E-02 -4.5962E+00  4.6435E+00
ac ID =   33377                -1.3242E+00  4.5124E+01 -3.7735E-01  4.5145E+01
                               -3.3423E-01  1.6704E+01 -4.8106E+01  2.5147E+03

           1    1.05004E+01     6.5039E-01  5.0855E-03 -4.5939E+00  4.6398E+00
ac ID =   33377                -9.7215E-01  4.6096E+01 -2.9131E-01  4.6107E+01
                               -3.3240E-01  1.6892E+01 -4.8074E+01  2.5147E+03

           1    1.06004E+01     6.8202E-01  4.8135E-03 -4.6086E+00  4.6588E+00
ac ID =   33377                -8.1650E-01  4.7116E+01  3.7537E-02  4.7123E+01
                               -3.3055E-01  1.7080E+01 -4.8037E+01  2.5147E+03

           1    1.07004E+01     6.9609E-01  2.1099E-02 -4.6998E+00  4.7511E+00
ac ID =   33377                -1.2784E+00  4.8744E+01  2.8583E-02  4.8761E+01
                               -3.2865E-01  1.7268E+01 -4.7995E+01  2.5147E+03

           1    1.08004E+01     6.7316E-01  1.1980E-03 -4.7343E+00  4.7819E+00
ac ID =   33377                -1.0584E+00  4.8959E+01 -1.5295E-01  4.8970E+01
                               -3.2676E-01  1.7455E+01 -4.7948E+01  2.5147E+03

           1    1.09004E+01     6.8041E-01  2.9175E-03 -4.7666E+00  4.8149E+00
ac ID =   33377                -7.8554E-01  5.0226E+01 -6.0930E-01  5.0236E+01
                               -3.2484E-01  1.7643E+01 -4.7896E+01  2.5147E+03

           1    1.10004E+01     7.2541E-01  1.8228E-02 -4.8296E+00  4.8838E+00
ac ID =   33377                -1.4358E+00  5.1851E+01 -4.8050E-01  5.1873E+01
                               -3.2284E-01  1.7829E+01 -4.7839E+01  2.5147E+03

           1    1.11004E+01     6.9164E-01  1.1710E-02 -4.8366E+00  4.8858E+00
ac ID =   33377                -1.0035E+00  5.2647E+01 -7.4827E-02  5.2657E+01
                               -3.2085E-01  1.8016E+01 -4.7776E+01  2.5147E+03

           1    1.12004E+01     6.9585E-01 -7.0753E-03 -4.8429E+00  4.8926E+00
ac ID =   33377                -1.1594E+00  5.3752E+01 -2.2372E-01  5.3765E+01
                               -3.1879E-01  1.8202E+01 -4.7708E+01  2.5147E+03

           1    1.13004E+01     7.4378E-01  1.4223E-02 -4.8533E+00  4.9100E+00
ac ID =   33377                -1.6475E+00  5.5567E+01 -5.3064E-01  5.5594E+01
                               -3.1673E-01  1.8387E+01 -4.7635E+01  2.5147E+03

           1    1.14004E+01     7.1881E-01  2.6894E-02 -4.8185E+00  4.8719E+00
ac ID =   33377                -1.8808E+00  5.5492E+01 -1.7888E-01  5.5524E+01
                               -3.1465E-01  1.8572E+01 -4.7556E+01  2.5147E+03

           1    1.15003E+01     6.9765E-01 -4.1336E-03 -4.8354E+00  4.8855E+00
ac ID =   33377                -1.1313E+00  5.6189E+01 -1.9559E-01  5.6201E+01
                               -3.1256E-01  1.8755E+01 -4.7472E+01  2.5147E+03

           1    1.16003E+01     7.2417E-01  1.8104E-02 -4.8328E+00  4.8868E+00
ac ID =   33377                -1.6690E+00  5.7231E+01 -1.4536E-01  5.7255E+01
                               -3.1044E-01  1.8938E+01 -4.7382E+01  2.5147E+03

           1    1.17003E+01     7.3090E-01  2.0326E-02 -4.8308E+00  4.8858E+00
ac ID =   33377                -1.8272E+00  5.8014E+01 -4.6096E-01  5.8044E+01
                               -3.0832E-01  1.9120E+01 -4.7287E+01  2.5147E+03

           1    1.18003E+01     7.1333E-01  5.8755E-03 -4.8285E+00  4.8809E+00
ac ID =   33377                -9.8893E-01  5.8562E+01 -6.1772E-01  5.8574E+01
                               -3.0620E-01  1.9301E+01 -4.7186E+01  2.5147E+03

           1    1.19003E+01     7.3299E-01  4.8189E-03 -4.7652E+00  4.8213E+00
ac ID =   33377                -1.5539E+00  5.9737E+01 -3.4329E-01  5.9758E+01
                               -3.0399E-01  1.9480E+01 -4.7080E+01  2.5147E+03

           1    1.20003E+01     7.4675E-01  3.0998E-02 -4.7471E+00  4.8056E+00
ac ID =   33377                -1.8904E+00  6.0796E+01 -4.3027E-01  6.0827E+01
                               -3.0184E-01  1.9659E+01 -4.6968E+01  2.5147E+03

           1    1.21003E+01     7.2563E-01  7.5488E-04 -4.6901E+00  4.7459E+00
ac ID =   33377                -1.4915E+00  6.0833E+01 -3.3156E-01  6.0852E+01
                               -2.9960E-01  1.9837E+01 -4.6851E+01  2.5147E+03

           1    1.22003E+01     7.3062E-01  1.7329E-02 -4.5952E+00  4.6530E+00
ac ID =   33377                -1.7612E+00  6.1331E+01 -5.4125E-01  6.1359E+01
                               -2.9738E-01  2.0013E+01 -4.6729E+01  2.5147E+03

           1    1.23003E+01     7.2958E-01  1.0333E-02 -4.5326E+00  4.5910E+00
ac ID =   33377                -2.2173E+00  6.1623E+01 -4.6791E-01  6.1665E+01
                               -2.9510E-01  2.0189E+01 -4.6602E+01  2.5147E+03

           1    1.24003E+01     7.2596E-01  1.7643E-02 -4.4886E+00  4.5470E+00
ac ID =   33377                -1.8020E+00  6.1791E+01 -5.8770E-01  6.1820E+01
                               -2.9290E-01  2.0363E+01 -4.6470E+01  2.5147E+03

           1    1.25002E+01     7.2883E-01  1.7789E-02 -4.4269E+00  4.4865E+00
ac ID =   33377                -2.1285E+00  6.2490E+01 -3.8974E-01  6.2528E+01
                               -2.9062E-01  2.0536E+01 -4.6334E+01  2.5147E+03

           1    1.26002E+01     7.4897E-01  4.6445E-03 -4.3933E+00  4.4567E+00
ac ID =   33377                -1.7149E+00  6.3249E+01 -2.9203E-01  6.3273E+01
                               -2.8835E-01  2.0709E+01 -4.6192E+01  2.5147E+03

           1    1.27002E+01     7.6821E-01  2.0904E-02 -4.3676E+00  4.4347E+00
ac ID =   33377                -1.9487E+00  6.5089E+01 -9.9056E-01  6.5126E+01
                               -2.8613E-01  2.0882E+01 -4.6047E+01  2.5147E+03

           1    1.28002E+01     6.0032E-01  1.1312E-02 -4.0368E+00  4.0812E+00
ac ID =   33377                -1.4128E+00  6.1962E+01 -3.7277E-01  6.1979E+01
                               -2.8393E-01  2.1053E+01 -4.5897E+01  2.5147E+03

           1    1.29002E+01     7.1129E-01  9.0551E-03 -3.9431E+00  4.0068E+00
ac ID =   33377                -1.0432E+00  6.2961E+01  8.2901E-02  6.2970E+01
                               -2.8176E-01  2.1222E+01 -4.5743E+01  2.5147E+03

           1    1.30002E+01     7.3912E-01 -1.3711E-03 -3.9548E+00  4.0233E+00
ac ID =   33377                -1.7739E+00  6.4609E+01 -1.7452E+00  6.4657E+01
                               -2.7950E-01  2.1390E+01 -4.5583E+01  2.5147E+03

           1    1.31002E+01     5.8670E-01  4.1256E-02 -3.8776E+00  3.9219E+00
ac ID =   33377                -2.3512E+00  6.1206E+01 -1.8352E+00  6.1279E+01
                               -2.7736E-01  2.1556E+01 -4.5419E+01  2.5147E+03

           1    1.32002E+01     6.4886E-01 -1.8172E-02 -3.7144E+00  3.7707E+00
ac ID =   33377                -1.4301E+00  6.2767E+01 -4.2246E-01  6.2784E+01
                               -2.7525E-01  2.1721E+01 -4.5251E+01  2.5147E+03

           1    1.33002E+01     6.8394E-01  1.5884E-02 -3.4701E+00  3.5369E+00
ac ID =   33377                -1.5248E+00  6.1837E+01  5.8601E-01  6.1858E+01
                               -2.7312E-01  2.1884E+01 -4.5080E+01  2.5147E+03

           1    1.34002E+01     6.6834E-01  1.7390E-02 -3.4367E+00  3.5012E+00
ac ID =   33377                -2.4598E+00  6.2650E+01 -9.6295E-02  6.2699E+01
                               -2.7099E-01  2.2046E+01 -4.4904E+01  2.5147E+03

           1    1.35001E+01     6.1169E-01  2.2151E-02 -3.3772E+00  3.4322E+00
ac ID =   33377                -1.9629E+00  6.0635E+01 -1.8664E+00  6.0696E+01
                               -2.6910E-01  2.2206E+01 -4.4724E+01  2.5147E+03

           1    1.36001E+01     6.7716E-01 -2.5057E-02 -3.2730E+00  3.3424E+00
ac ID =   33377                -1.1926E+00  6.1678E+01 -1.8673E+00  6.1718E+01
                               -2.6698E-01  2.2365E+01 -4.4541E+01  2.5147E+03

           1    1.37001E+01     6.3639E-01  1.7694E-02 -3.0716E+00  3.1369E+00
ac ID =   33377                -2.0006E+00  6.0323E+01 -3.0797E-01  6.0357E+01
                               -2.6498E-01  2.2523E+01 -4.4356E+01  2.5147E+03

           1    1.38001E+01     6.2685E-01  4.4678E-02 -2.9108E+00  2.9779E+00
ac ID =   33377                -2.1220E+00  5.9410E+01  6.3181E-01  5.9452E+01
                               -2.6320E-01  2.2680E+01 -4.4167E+01  2.5147E+03

           1    1.39001E+01     5.7052E-01 -3.1122E-02 -2.8495E+00  2.9063E+00
ac ID =   33377                -8.4740E-01  5.8612E+01  1.1029E-01  5.8618E+01
                               -2.6124E-01  2.2836E+01 -4.3975E+01  2.5147E+03

           1    1.40001E+01     6.3269E-01  1.0470E-02 -2.8514E+00  2.9208E+00
ac ID =   33377                -2.6710E+00  5.9330E+01 -1.2247E+00  5.9402E+01
                               -2.5931E-01  2.2991E+01 -4.3782E+01  2.5147E+03

           1    1.41001E+01     6.1356E-01  3.8434E-02 -2.6021E+00  2.6738E+00
ac ID =   33377                -2.8833E+00  5.9607E+01 -7.9008E-01  5.9682E+01
                               -2.5774E-01  2.3147E+01 -4.3587E+01  2.5147E+03

           1    1.42001E+01     5.5127E-01  1.4559E-02 -2.3512E+00  2.4150E+00
ac ID =   33377                -1.5858E+00  5.7308E+01  6.1939E-02  5.7330E+01
                               -2.5603E-01  2.3301E+01 -4.3389E+01  2.5147E+03

           1    1.43001E+01     5.8034E-01 -1.4095E-02 -2.3504E+00  2.4211E+00
ac ID =   33377                -2.0391E+00  5.7376E+01 -2.3898E-01  5.7413E+01
                               -2.5435E-01  2.3455E+01 -4.3190E+01  2.5147E+03

           1    1.44001E+01     6.2134E-01  3.2980E-02 -2.2980E+00  2.3807E+00
ac ID =   33377                -3.4820E+00  5.7162E+01 -1.0857E+00  5.7279E+01
                               -2.5291E-01  2.3608E+01 -4.2990E+01  2.5147E+03

           1    1.45000E+01     5.3144E-01  2.4548E-02 -2.0068E+00  2.0761E+00
ac ID =   33377                -1.8636E+00  5.4250E+01 -1.5118E+00  5.4303E+01
                               -2.5167E-01  2.3762E+01 -4.2788E+01  2.5147E+03

           1    1.46000E+01     4.8502E-01 -2.2856E-03 -1.8391E+00  1.9020E+00
ac ID =   33377                -1.3806E+00  5.2424E+01 -5.0825E-01  5.2445E+01
                               -2.5028E-01  2.3915E+01 -4.2586E+01  2.5147E+03

           1    1.47000E+01     6.1155E-01  1.7128E-02 -1.8027E+00  1.9037E+00
ac ID =   33377                -2.6429E+00  5.3715E+01 -6.8497E-01  5.3785E+01
                               -2.4909E-01  2.4067E+01 -4.2383E+01  2.5147E+03

           1    1.48005E+01     4.8077E-01  1.4673E-02 -1.6203E+00  1.6902E+00
ac ID =   33377                -2.5465E+00  5.0701E+01 -1.1767E+00  5.0779E+01
                               -2.4810E-01  2.4220E+01 -4.2178E+01  2.5147E+03

           1    1.49005E+01     4.4947E-01  2.4154E-02 -1.5075E+00  1.5733E+00
ac ID =   33377                -1.9445E+00  4.8654E+01 -6.2137E-01  4.8697E+01
                               -2.4713E-01  2.4373E+01 -4.1974E+01  2.5147E+03

           1    1.50005E+01     5.3186E-01 -1.8684E-02 -1.3302E+00  1.4327E+00
ac ID =   33377                -1.6440E+00  4.9112E+01 -6.0823E-01  4.9144E+01
                               -2.4608E-01  2.4525E+01 -4.1770E+01  2.5147E+03

           1    1.51005E+01     5.0391E-01  5.4718E-02 -1.1276E+00  1.2363E+00
ac ID =   33377                -3.1559E+00  4.7441E+01 -4.1052E-01  4.7547E+01
                               -2.4542E-01  2.4678E+01 -4.1566E+01  2.5147E+03

           1    1.52005E+01     4.2246E-01 -2.0039E-03 -1.0795E+00  1.1592E+00
ac ID =   33377                -2.2511E+00  4.5762E+01 -1.3868E+00  4.5838E+01
                               -2.4474E-01  2.4831E+01 -4.1363E+01  2.5147E+03

           1    1.53005E+01     4.6290E-01  2.2440E-03 -9.9049E-01  1.0933E+00
ac ID =   33377                -2.5023E+00  4.5489E+01 -8.3368E-01  4.5566E+01
                               -2.4406E-01  2.4985E+01 -4.1160E+01  2.5147E+03

           1    1.54005E+01     5.3993E-01  5.7006E-03 -9.0058E-01  1.0500E+00
ac ID =   33377                -1.9696E+00  4.6384E+01  1.2005E-01  4.6426E+01
                               -2.4369E-01  2.5139E+01 -4.0959E+01  2.5147E+03

           1    1.55004E+01     3.8122E-01  2.4340E-02 -6.4119E-01  7.4636E-01
ac ID =   33377                -2.5978E+00  4.2799E+01  8.2009E-01  4.2886E+01
                               -2.4331E-01  2.5295E+01 -4.0758E+01  2.5147E+03

           1    1.56004E+01     3.9697E-01  8.3362E-03 -6.0875E-01  7.2680E-01
ac ID =   33377                -2.0608E+00  4.3723E+01 -2.7064E-01  4.3772E+01
                               -2.4302E-01  2.5451E+01 -4.0559E+01  2.5147E+03

           1    1.57004E+01     5.3605E-01 -1.5109E-02 -5.1905E-01  7.4632E-01
ac ID =   33377                -2.1459E+00  4.4830E+01 -6.4796E-01  4.4886E+01
                               -2.4276E-01  2.5608E+01 -4.0362E+01  2.5147E+03

           1    1.58004E+01     4.0747E-01  1.5068E-02 -4.4698E-01  6.0503E-01
ac ID =   33377                -2.4942E+00  4.3236E+01  1.3660E-01  4.3308E+01
                               -2.4269E-01  2.5766E+01 -4.0166E+01  2.5147E+03

           1    1.59004E+01     3.7710E-01  2.1258E-02 -2.4184E-01  4.4849E-01
ac ID =   33377                -3.0175E+00  4.2732E+01  6.7947E-01  4.2844E+01
                               -2.4262E-01  2.5925E+01 -3.9973E+01  2.5147E+03

           1    1.60004E+01     4.5976E-01  4.6179E-04 -8.7336E-02  4.6799E-01
ac ID =   33377                -1.8113E+00  4.1583E+01  5.0423E-01  4.1626E+01
                               -2.4274E-01  2.6085E+01 -3.9782E+01  2.5147E+03

           1    1.61004E+01     4.2584E-01  7.2326E-03 -1.2361E-01  4.4348E-01
ac ID =   33377                -2.7230E+00  4.2246E+01 -6.2424E-01  4.2339E+01
                               -2.4287E-01  2.6246E+01 -3.9593E+01  2.5147E+03

           1    1.62004E+01     3.4507E-01  2.8863E-02  4.9760E-02  3.4984E-01
ac ID =   33377                -3.5570E+00  3.9093E+01 -1.3070E+00  3.9276E+01
                               -2.4314E-01  2.6407E+01 -3.9406E+01  2.5147E+03

           1    1.63004E+01     4.4535E-01  2.1008E-02  1.6087E-01  4.7398E-01
ac ID =   33377                -2.3298E+00  4.0648E+01 -5.7846E-01  4.0719E+01
                               -2.4370E-01  2.6569E+01 -3.9222E+01  2.5147E+03

           1    1.64004E+01     3.9524E-01 -1.7668E-02  2.2279E-01  4.5405E-01
ac ID =   33377                -1.4249E+00  3.9765E+01  2.6303E-01  3.9792E+01
                               -2.4409E-01  2.6733E+01 -3.9041E+01  2.5147E+03

           1    1.65003E+01     3.5880E-01  1.6735E-02  3.6063E-01  5.0899E-01
ac ID =   33377                -3.0018E+00  3.8414E+01 -5.8552E-01  3.8535E+01
                               -2.4467E-01  2.6896E+01 -3.8863E+01  2.5147E+03

           1    1.66003E+01     3.6222E-01  4.9052E-02  4.1276E-01  5.5135E-01
ac ID =   33377                -2.7181E+00  3.9503E+01 -9.6536E-01  3.9609E+01
                               -2.4563E-01  2.7061E+01 -3.8687E+01  2.5147E+03

           1    1.67003E+01     4.1166E-01 -4.9228E-02  4.7312E-01  6.2907E-01
ac ID =   33377                -1.1752E+00  3.9465E+01 -2.0909E-01  3.9483E+01
                               -2.4620E-01  2.7226E+01 -3.8515E+01  2.5147E+03

           1    1.68003E+01     3.1648E-01  2.8854E-02  6.2181E-01  6.9832E-01
ac ID =   33377                -2.8134E+00  3.7280E+01 -4.7534E-01  3.7389E+01
                               -2.4724E-01  2.7392E+01 -3.8347E+01  2.5147E+03

           1    1.69003E+01     3.3926E-01  5.9076E-02  7.2560E-01  8.0318E-01
ac ID =   33377                -3.9666E+00  3.6547E+01 -1.0098E+00  3.6775E+01
                               -2.4831E-01  2.7558E+01 -3.8181E+01  2.5147E+03

           1    1.70003E+01     3.5922E-01 -3.6640E-02  7.1782E-01  8.0353E-01
ac ID =   33377                -1.6120E+00  3.6572E+01 -7.8555E-01  3.6615E+01
                               -2.4944E-01  2.7725E+01 -3.8019E+01  2.5147E+03

           1    1.71003E+01     2.8775E-01 -3.7048E-03  8.1741E-01  8.6659E-01
ac ID =   33377                -2.4465E+00  3.6447E+01 -2.0680E-01  3.6529E+01
                               -2.5068E-01  2.7893E+01 -3.7861E+01  2.5147E+03

           1    1.72003E+01     3.6415E-01  5.6021E-02  9.6706E-01  1.0349E+00
ac ID =   33377                -3.1756E+00  3.7559E+01 -1.0917E-01  3.7694E+01
                               -2.5224E-01  2.8062E+01 -3.7706E+01  2.5147E+03

           1    1.73003E+01     3.8166E-01  3.3891E-03  9.6922E-01  1.0417E+00
ac ID =   33377                -2.0887E+00  3.8265E+01 -7.9278E-02  3.8323E+01
                               -2.5371E-01  2.8231E+01 -3.7556E+01  2.5147E+03

           1    1.74003E+01     3.3098E-01 -4.3467E-02  9.5908E-01  1.0155E+00
ac ID =   33377                -9.0499E-01  3.5480E+01 -8.7731E-01  3.5503E+01
                               -2.5534E-01  2.8400E+01 -3.7409E+01  2.5147E+03

           1    1.75002E+01     2.7589E-01  6.8011E-02  1.0685E+00  1.1056E+00
ac ID =   33377                -3.7638E+00  3.3887E+01 -2.2559E-01  3.4096E+01
                               -2.5717E-01  2.8570E+01 -3.7266E+01  2.5147E+03

           1    1.76002E+01     3.4634E-01  1.6065E-02  1.1143E+00  1.1670E+00
ac ID =   33377                -2.5518E+00  3.3819E+01  2.9844E-01  3.3916E+01
                               -2.5903E-01  2.8740E+01 -3.7127E+01  2.5147E+03

           1    1.77002E+01     3.1101E-01 -2.9056E-02  1.1520E+00  1.1936E+00
ac ID =   33377                -1.0377E+00  3.3378E+01 -4.8133E-01  3.3397E+01
                               -2.6109E-01  2.8911E+01 -3.6993E+01  2.5147E+03

           1    1.78002E+01     3.2128E-01  4.3628E-02  1.1740E+00  1.2180E+00
ac ID =   33377                -3.3375E+00  3.3763E+01 -1.0617E+00  3.3944E+01
                               -2.6324E-01  2.9082E+01 -3.6863E+01  2.5147E+03

           1    1.79002E+01     3.3836E-01  1.2346E-02  1.1891E+00  1.2363E+00
ac ID =   33377                -2.7991E+00  3.4761E+01 -8.7723E-01  3.4885E+01
                               -2.6550E-01  2.9254E+01 -3.6737E+01  2.5147E+03

           1    1.80002E+01     3.6226E-01 -1.4671E-02  1.1718E+00  1.2266E+00
ac ID =   33377                -1.6424E+00  3.4508E+01  3.6263E-01  3.4549E+01
                               -2.6799E-01  2.9425E+01 -3.6615E+01  2.5147E+03

           1    1.81002E+01     2.4892E-01  1.1757E-02  1.2720E+00  1.2961E+00
ac ID =   33377                -1.5228E+00  3.1298E+01  4.1048E-01  3.1337E+01
                               -2.7061E-01  2.9597E+01 -3.6497E+01  2.5147E+03

           1    1.82002E+01     3.2180E-01  2.4560E-02  1.2642E+00  1.3047E+00
ac ID =   33377                -3.0581E+00  3.1849E+01 -6.1071E-01  3.2001E+01
                               -2.7314E-01  2.9769E+01 -3.6384E+01  2.5147E+03

           1    1.83002E+01     2.8488E-01  2.5511E-03  1.2650E+00  1.2966E+00
ac ID =   33377                -1.7277E+00  3.0526E+01 -1.4412E+00  3.0609E+01
                               -2.7598E-01  2.9942E+01 -3.6274E+01  2.5147E+03

           1    1.84002E+01     2.4510E-01 -3.0465E-02  1.2953E+00  1.3186E+00
ac ID =   33377                -1.3221E+00  2.8978E+01 -9.4291E-01  2.9024E+01
                               -2.7889E-01  3.0114E+01 -3.6169E+01  2.5147E+03

           1    1.85001E+01     2.6728E-01  5.2733E-02  1.3383E+00  1.3658E+00
ac ID =   33377                -3.2100E+00  2.8489E+01  3.5575E-01  2.8671E+01
                               -2.8187E-01  3.0287E+01 -3.6069E+01  2.5147E+03

           1    1.86001E+01     2.8397E-01  1.0544E-02  1.3754E+00  1.4045E+00
ac ID =   33377                -2.1304E+00  2.7621E+01  6.2450E-03  2.7703E+01
                               -2.8498E-01  3.0460E+01 -3.5972E+01  2.5147E+03

           1    1.87001E+01     1.9296E-01 -1.9886E-02  1.4046E+00  1.4180E+00
ac ID =   33377                -1.3102E+00  2.4828E+01 -6.8626E-01  2.4872E+01
                               -2.8830E-01  3.0633E+01 -3.5880E+01  2.5147E+03

           1    1.88001E+01     2.5512E-01  4.1508E-02  1.3504E+00  1.3749E+00
ac ID =   33377                -3.2702E+00  2.5127E+01 -6.7356E-01  2.5348E+01
                               -2.9168E-01  3.0806E+01 -3.5792E+01  2.5147E+03

           1    1.89001E+01     2.3957E-01 -1.5854E-03  1.4072E+00  1.4274E+00
ac ID =   33377                -1.9143E+00  2.4062E+01 -6.1647E-01  2.4146E+01
                               -2.9515E-01  3.0979E+01 -3.5708E+01  2.5147E+03

           1    1.90001E+01     1.8281E-01  5.1305E-03  1.4354E+00  1.4470E+00
ac ID =   33377                -1.4846E+00  2.2329E+01 -1.2509E-01  2.2379E+01
                               -2.9888E-01  3.1152E+01 -3.5628E+01  2.5147E+03

           1    1.91001E+01     1.9256E-01  2.4887E-02  1.3633E+00  1.3771E+00
ac ID =   33377                -2.6003E+00  2.2071E+01 -1.3090E-01  2.2224E+01
                               -3.0267E-01  3.1326E+01 -3.5552E+01  2.5147E+03

           1    1.92001E+01     2.2884E-01 -3.1841E-03  1.3881E+00  1.4069E+00
ac ID =   33377                -1.7106E+00  2.2129E+01 -6.2892E-01  2.2204E+01
                               -3.0646E-01  3.1499E+01 -3.5481E+01  2.5147E+03

           1    1.93001E+01     1.7492E-01  1.9202E-03  1.3609E+00  1.3721E+00
ac ID =   33377                -1.9840E+00  2.0465E+01 -6.8358E-01  2.0572E+01
                               -3.1053E-01  3.1673E+01 -3.5413E+01  2.5147E+03

           1    1.94001E+01     1.6590E-01  3.5039E-02  1.3095E+00  1.3204E+00
ac ID =   33377                -2.2635E+00  1.9572E+01 -6.2188E-01  1.9712E+01
                               -3.1470E-01  3.1847E+01 -3.5349E+01  2.5147E+03

           1    1.95000E+01     2.5009E-01 -3.6669E-03  1.3230E+00  1.3465E+00
ac ID =   33377                -2.1008E+00  2.0183E+01 -9.8465E-01  2.0316E+01
                               -3.1888E-01  3.2021E+01 -3.5290E+01  2.5147E+03

           1    1.96000E+01     1.6348E-01  3.6833E-03  1.2826E+00  1.2930E+00
ac ID =   33377                -1.6051E+00  1.8464E+01 -6.7568E-01  1.8546E+01
                               -3.2331E-01  3.2195E+01 -3.5233E+01  2.5147E+03

           1    1.97005E+01     1.5984E-01  1.7694E-02  1.2235E+00  1.2341E+00
ac ID =   33377                -2.6109E+00  1.7481E+01 -1.4446E-01  1.7675E+01
                               -3.2781E-01  3.2369E+01 -3.5181E+01  2.5147E+03

           1    1.98005E+01     2.4874E-01  9.9576E-03  1.1917E+00  1.2174E+00
ac ID =   33377                -1.5073E+00  1.8425E+01 -5.0878E-01  1.8493E+01
                               -3.3250E-01  3.2543E+01 -3.5132E+01  2.5147E+03

           1    1.99005E+01     1.7659E-01 -1.4753E-02  1.1913E+00  1.2044E+00
ac ID =   33377                -1.1680E+00  1.6532E+01 -5.2005E-01  1.6582E+01
                               -3.3721E-01  3.2717E+01 -3.5087E+01  2.5147E+03

           1    2.00005E+01     1.2970E-01  1.6764E-02  1.1586E+00  1.1660E+00
ac ID =   33377                -2.0908E+00  1.4833E+01 -5.1443E-01  1.4989E+01
                               -3.4204E-01  3.2890E+01 -3.5044E+01  2.5147E+03

           1    2.01005E+01     2.1738E-01  2.2570E-02  1.1379E+00  1.1587E+00
ac ID =   33377                -1.9927E+00  1.6056E+01 -5.6783E-01  1.6189E+01
                               -3.4705E-01  3.3063E+01 -3.5006E+01  2.5147E+03

           1    2.02005E+01     1.8768E-01 -1.7068E-02  1.1062E+00  1.1222E+00
ac ID =   33377                -1.0029E+00  1.4890E+01 -6.6103E-01  1.4938E+01
                               -3.5212E-01  3.3236E+01 -3.4970E+01  2.5147E+03

           1    2.03005E+01     1.1785E-01  8.2899E-03  1.0560E+00  1.0625E+00
ac ID =   33377                -1.6271E+00  1.2679E+01 -3.0714E-01  1.2787E+01
                               -3.5720E-01  3.3409E+01 -3.4938E+01  2.5147E+03

           1    2.04005E+01     2.0701E-01  2.5053E-02  1.0252E+00  1.0462E+00
ac ID =   33377                -2.2256E+00  1.3821E+01 -8.5904E-01  1.4026E+01
                               -3.6255E-01  3.3582E+01 -3.4909E+01  2.5147E+03

           1    2.05004E+01     1.8790E-01  3.1413E-03  9.9773E-01  1.0153E+00
ac ID =   33377                -9.4875E-01  1.2608E+01 -4.5264E-01  1.2651E+01
                               -3.6791E-01  3.3755E+01 -3.4882E+01  2.5147E+03

           1    2.06004E+01     9.8877E-02 -1.9933E-02  9.7197E-01  9.7719E-01
ac ID =   33377                -9.0894E-01  9.9510E+00  6.3866E-04  9.9924E+00
                               -3.7328E-01  3.3927E+01 -3.4858E+01  2.5147E+03

           1    2.07004E+01     1.7888E-01  3.2516E-02  8.8375E-01  9.0226E-01
ac ID =   33377                -1.8130E+00  1.0340E+01 -2.8591E-01  1.0502E+01
                               -3.7887E-01  3.4099E+01 -3.4837E+01  2.5147E+03

           1    2.08004E+01     1.7544E-01  1.0850E-02  8.6378E-01  8.8148E-01
ac ID =   33377                -9.5440E-01  9.9390E+00 -4.1140E-01  9.9932E+00
                               -3.8455E-01  3.4270E+01 -3.4819E+01  2.5147E+03

           1    2.09004E+01     9.4554E-02 -3.2885E-02  8.4646E-01  8.5236E-01
ac ID =   33377                -1.5537E-01  7.4626E+00 -6.3003E-01  7.4908E+00
                               -3.9010E-01  3.4442E+01 -3.4802E+01  2.5147E+03

           1    2.10004E+01     1.3579E-01  2.2242E-02  7.5110E-01  7.6360E-01
ac ID =   33377                -1.5201E+00  7.9675E+00 -8.3866E-01  8.1544E+00
                               -3.9590E-01  3.4612E+01 -3.4788E+01  2.5147E+03

           1    2.11004E+01     1.8706E-01  2.2771E-02  6.9233E-01  7.1751E-01
ac ID =   33377                -1.1736E+00  8.2923E+00 -5.8994E-01  8.3957E+00
                               -4.0176E-01  3.4783E+01 -3.4777E+01  2.5147E+03

           1    2.12004E+01     1.0694E-01 -3.0332E-02  6.5397E-01  6.6335E-01
ac ID =   33377                -3.6413E-02  5.7842E+00 -2.4586E-01  5.7895E+00
                               -4.0753E-01  3.4953E+01 -3.4767E+01  2.5147E+03

           1    2.13004E+01     1.1098E-01  1.2374E-02  6.2059E-01  6.3056E-01
ac ID =   33377                -1.0468E+00  4.5496E+00 -5.5359E-01  4.7012E+00
                               -4.1350E-01  3.5123E+01 -3.4759E+01  2.5147E+03

           1    2.14004E+01     1.9055E-01  1.7501E-02  5.5228E-01  5.8449E-01
ac ID =   33377                -9.4888E-01  5.4718E+00 -5.3606E-01  5.5792E+00
                               -4.1945E-01  3.5293E+01 -3.4753E+01  2.5147E+03

           1    2.15003E+01     1.1273E-01 -2.5494E-02  5.1407E-01  5.2690E-01
ac ID =   33377                -1.3214E-01  3.3929E+00 -3.6369E-01  3.4149E+00
                               -4.2539E-01  3.5462E+01 -3.4748E+01  2.5147E+03

           1    2.16003E+01     1.2414E-01 -7.1905E-03  4.4944E-01  4.6633E-01
ac ID =   33377                -6.0388E-02  3.4528E+00 -5.1792E-01  3.4919E+00
                               -4.3146E-01  3.5630E+01 -3.4744E+01  2.5147E+03

           1    2.17003E+01     1.7726E-01  2.5857E-02  4.0495E-01  4.4281E-01
ac ID =   33377                -1.0847E+00  4.0841E+00 -3.5096E-01  4.2402E+00
                               -4.3749E-01  3.5798E+01 -3.4742E+01  2.5147E+03

           1    2.18003E+01     1.5797E-01 -2.1379E-02  3.6033E-01  3.9402E-01
ac ID =   33377                 1.4006E-01  3.2329E+00 -7.1564E-01  3.3141E+00
                               -4.4348E-01  3.5965E+01 -3.4742E+01  2.5147E+03

           1    2.19003E+01     9.9292E-02 -1.7195E-02  3.2336E-01  3.3870E-01
ac ID =   33377                 3.3041E-01  1.5401E+00 -9.1620E-01  1.8222E+00
                               -4.4960E-01  3.6132E+01 -3.4742E+01  2.5147E+03

           1    2.20003E+01     1.7388E-01  1.9907E-02  2.5932E-01  3.1286E-01
ac ID =   33377                -4.8322E-01  2.2205E+00 -6.9634E-01  2.3768E+00
                               -4.5566E-01  3.6298E+01 -3.4743E+01  2.5147E+03

           1    2.21003E+01     1.6503E-01 -7.0395E-03  1.9309E-01  2.5410E-01
ac ID =   33377                -5.2415E-03  1.9870E+00 -2.8311E-01  2.0071E+00
                               -4.6167E-01  3.6464E+01 -3.4745E+01  2.5147E+03

           1    2.22003E+01     1.3101E-01 -2.7098E-02  1.7875E-01  2.2327E-01
ac ID =   33377                 5.7011E-01  8.4144E-01 -2.7767E-01  1.0536E+00
                               -4.6774E-01  3.6629E+01 -3.4747E+01  2.5147E+03

           1    2.23003E+01     1.7630E-01  8.4941E-03  1.2170E-01  2.1440E-01
ac ID =   33377                -1.5003E-01  1.0886E+00 -3.0730E-01  1.1411E+00
                               -4.7382E-01  3.6793E+01 -3.4750E+01  2.5147E+03

           1    2.24003E+01     1.6252E-01 -5.1222E-03  1.6024E-02  1.6339E-01
ac ID =   33377                 4.0260E-02  4.2132E-01 -4.6540E-01  6.2907E-01
                               -4.7981E-01  3.6956E+01 -3.4753E+01  2.5147E+03

           1    2.25002E+01     1.5609E-01 -2.6220E-02 -1.8228E-02  1.5932E-01
ac ID =   33377                 7.5488E-01 -3.1123E-01 -4.0671E-01  9.1221E-01
                               -4.8584E-01  3.7119E+01 -3.4757E+01  2.5147E+03

           1    2.26002E+01     1.6109E-01  6.8096E-03 -4.0170E-02  1.6616E-01
ac ID =   33377                 1.1682E-01 -6.5326E-01 -3.6205E-01  7.5596E-01
                               -4.9188E-01  3.7280E+01 -3.4761E+01  2.5147E+03

           1    2.27002E+01     1.8734E-01 -9.6552E-03 -1.0723E-01  2.1608E-01
ac ID =   33377                 2.7229E-01 -5.1259E-01 -7.0668E-01  9.1449E-01
                               -4.9781E-01  3.7441E+01 -3.4765E+01  2.5147E+03

           1    2.28002E+01     1.7228E-01 -2.1238E-02 -1.6235E-01  2.3767E-01
ac ID =   33377                 8.8801E-01 -1.1251E+00 -6.6311E-01  1.5793E+00
                               -5.0374E-01  3.7601E+01 -3.4768E+01  2.5147E+03

           1    2.29002E+01     1.9264E-01 -1.2904E-02 -2.2197E-01  2.9419E-01
ac ID =   33377                 6.7074E-01 -1.5054E+00 -4.3893E-01  1.7055E+00
                               -5.0966E-01  3.7761E+01 -3.4771E+01  2.5147E+03

           1    2.30002E+01     1.9015E-01  5.3082E-03 -2.4678E-01  3.1159E-01
ac ID =   33377                 4.5408E-01 -1.9036E+00 -3.1721E-01  1.9825E+00
                               -5.1558E-01  3.7919E+01 -3.4774E+01  2.5147E+03

           1    2.31002E+01     1.8986E-01 -1.8290E-02 -2.7110E-01  3.3148E-01
ac ID =   33377                 8.2964E-01 -2.7632E+00 -2.5447E-01  2.8962E+00
                               -5.2132E-01  3.8076E+01 -3.4777E+01  2.5147E+03

           1    2.32002E+01     2.0996E-01 -5.8831E-03 -3.2529E-01  3.8721E-01
ac ID =   33377                 4.8180E-01 -2.7351E+00 -2.4313E-01  2.7879E+00
                               -5.2711E-01  3.8233E+01 -3.4779E+01  2.5147E+03

           1    2.33002E+01     1.9986E-01 -4.1546E-03 -3.9458E-01  4.4233E-01
ac ID =   33377                 5.5721E-01 -3.3244E+00 -5.1891E-01  3.4105E+00
                               -5.3289E-01  3.8388E+01 -3.4780E+01  2.5147E+03

           1    2.34002E+01     2.0153E-01 -5.7979E-03 -4.0323E-01  4.5082E-01
ac ID =   33377                 7.4672E-01 -3.7116E+00 -5.7367E-01  3.8291E+00
                               -5.3858E-01  3.8542E+01 -3.4780E+01  2.5147E+03

           1    2.35001E+01     2.1562E-01 -1.0822E-02 -4.1002E-01  4.6338E-01
ac ID =   33377                 7.6488E-01 -4.1032E+00 -4.5315E-01  4.1984E+00
                               -5.4420E-01  3.8696E+01 -3.4780E+01  2.5147E+03

           1    2.36001E+01     2.1173E-01 -8.5505E-03 -4.7348E-01  5.1873E-01
ac ID =   33377                 6.8666E-01 -4.4904E+00 -8.7107E-01  4.6253E+00
                               -5.4984E-01  3.8848E+01 -3.4778E+01  2.5147E+03

           1    2.37001E+01     2.0611E-01 -1.8596E-02 -5.2607E-01  5.6531E-01
ac ID =   33377                 9.3252E-01 -5.3455E+00 -6.7106E-01  5.4676E+00
                               -5.5542E-01  3.8999E+01 -3.4776E+01  2.5147E+03

           1    2.38001E+01     2.1062E-01 -1.0602E-02 -5.4462E-01  5.8402E-01
ac ID =   33377                 7.3392E-01 -5.6766E+00 -1.8079E-01  5.7267E+00
                               -5.6091E-01  3.9150E+01 -3.4772E+01  2.5147E+03

           1    2.39001E+01     2.0907E-01  4.0115E-03 -5.8288E-01  6.1926E-01
ac ID =   33377                 4.5977E-01 -6.6228E+00 -7.1990E-02  6.6392E+00
                               -5.6641E-01  3.9299E+01 -3.4767E+01  2.5147E+03

           1    2.40001E+01     2.0725E-01 -1.7226E-02 -6.1689E-01  6.5100E-01
ac ID =   33377                 1.0470E+00 -7.2115E+00 -2.7625E-01  7.2923E+00
                               -5.7182E-01  3.9447E+01 -3.4761E+01  2.5147E+03

           1    2.41001E+01     1.9694E-01 -7.7989E-03 -6.3817E-01  6.6791E-01
ac ID =   33377                 7.1866E-01 -8.2464E+00 -2.3561E-01  8.2810E+00
                               -5.7720E-01  3.9594E+01 -3.4753E+01  2.5147E+03

           1    2.42001E+01     2.0867E-01 -3.7563E-03 -7.0683E-01  7.3700E-01
ac ID =   33377                 7.3901E-01 -8.7605E+00 -7.1259E-01  8.8205E+00
                               -5.8253E-01  3.9741E+01 -3.4743E+01  2.5147E+03

           1    2.43001E+01     2.1171E-01 -1.5487E-02 -7.2921E-01  7.5948E-01
ac ID =   33377                 9.6371E-01 -9.3874E+00 -5.1744E-01  9.4509E+00
                               -5.8780E-01  3.9886E+01 -3.4732E+01  2.5147E+03

           1    2.44001E+01     1.9668E-01 -9.1826E-03 -7.2507E-01  7.5133E-01
ac ID =   33377                 1.1377E+00 -1.0249E+01 -2.6416E-01  1.0316E+01
                               -5.9306E-01  4.0030E+01 -3.4719E+01  2.5147E+03

           1    2.45005E+01     2.0183E-01 -3.7399E-03 -7.8397E-01  8.0954E-01
ac ID =   33377                 5.5685E-01 -1.0641E+01 -6.5892E-01  1.0676E+01
                               -5.9825E-01  4.0174E+01 -3.4705E+01  2.5147E+03

           1    2.46005E+01     2.0821E-01 -1.0247E-02 -8.0211E-01  8.2876E-01
ac ID =   33377                 9.9786E-01 -1.1285E+01 -3.9778E-01  1.1336E+01
                               -6.0334E-01  4.0316E+01 -3.4688E+01  2.5147E+03

           1    2.47005E+01     2.0076E-01 -1.9900E-02 -7.8587E-01  8.1135E-01
ac ID =   33377                 1.3759E+00 -1.1988E+01 -2.3988E-01  1.2070E+01
                               -6.0843E-01  4.0458E+01 -3.4670E+01  2.5147E+03

           1    2.48005E+01     1.9990E-01 -4.5980E-04 -7.9811E-01  8.2276E-01
ac ID =   33377                 7.3204E-01 -1.2476E+01 -1.7039E-01  1.2498E+01
                               -6.1345E-01  4.0598E+01 -3.4649E+01  2.5147E+03

           1    2.49005E+01     2.1154E-01 -6.2723E-03 -8.0002E-01  8.2754E-01
ac ID =   33377                 7.9162E-01 -1.2771E+01  1.2864E-02  1.2795E+01
                               -6.1835E-01  4.0738E+01 -3.4627E+01  2.5147E+03

