 LSTC 50th% Full_FE H-III Dummy (Beta Version, February 17, 2019)        
                    ls-dyna smp s R16 R16.0_619_d222963 date 03/18/2025

{BEGIN LEGEND}
 Entity #        Title
    22626                                                                                     
{END LEGEND}




 n o d a l   p r i n t   o u t   f o r   t i m e  s t e p       1                              ( at time 0.0000000E+00 )

 nodal point  x-disp     y-disp      z-disp      x-vel       y-vel       z-vel      x-accl      y-accl      z-accl      x-coor      y-coor      z-coor
    22626  0.00000E+00 0.00000E+00 0.00000E+00 0.00000E+00 0.00000E+00-3.12000E+00 0.00000E+00 0.00000E+00 0.00000E+00 4.79642E+01-2.20298E+01 7.33850E+00



 n o d a l   p r i n t   o u t   f o r   t i m e  s t e p       1                              ( at time 0.0000000E+00 )

 nodal point  x-rot      y-rot       z-rot       x-rot vel   y-rot vel   z-rot vel   x-rot acc   y-rot acc   z-rot acc
    22626  0.00000E+00 0.00000E+00 0.00000E+00 0.00000E+00 0.00000E+00 0.00000E+00 0.00000E+00 0.00000E+00 0.00000E+00



 n o d a l   p r i n t   o u t   f o r   t i m e  s t e p     201                              ( at time 9.9989993E-02 )

 nodal point  x-disp     y-disp      z-disp      x-vel       y-vel       z-vel      x-accl      y-accl      z-accl      x-coor      y-coor      z-coor
    22626  8.34161E-07-4.04494E-06-3.12016E-01 4.76626E-05-4.96483E-04-3.12074E+00 4.76673E-04-4.96533E-03-7.42748E-03 4.79642E+01-2.20298E+01 7.02648E+00



 n o d a l   p r i n t   o u t   f o r   t i m e  s t e p     201                              ( at time 9.9989993E-02 )

 nodal point  x-rot      y-rot       z-rot       x-rot vel   y-rot vel   z-rot vel   x-rot acc   y-rot acc   z-rot acc
    22626  9.60962E-09 3.04040E-08 5.26997E-08 1.30632E-06 2.72226E-06 5.21259E-06 1.30645E-05 2.72254E-05 5.21311E-05



 n o d a l   p r i n t   o u t   f o r   t i m e  s t e p     401                              ( at time 1.9997999E-01 )

 nodal point  x-disp     y-disp      z-disp      x-vel       y-vel       z-vel      x-accl      y-accl      z-accl      x-coor      y-coor      z-coor
    22626 -5.12769E-05-5.21555E-04-6.23853E-01-1.09659E-03-1.11134E-02-3.11558E+00-1.14437E-02-1.06179E-01 5.16228E-02 4.79641E+01-2.20303E+01 6.71465E+00



 n o d a l   p r i n t   o u t   f o r   t i m e  s t e p     401                              ( at time 1.9997999E-01 )

 nodal point  x-rot      y-rot       z-rot       x-rot vel   y-rot vel   z-rot vel   x-rot acc   y-rot acc   z-rot acc
    22626  4.60376E-07 1.32994E-06 2.50234E-06 2.63444E-06 1.90448E-05 3.49404E-05 1.32825E-05 1.63241E-04 2.97308E-04



 n o d a l   p r i n t   o u t   f o r   t i m e  s t e p     601                              ( at time 2.9996998E-01 )

 nodal point  x-disp     y-disp      z-disp      x-vel       y-vel       z-vel      x-accl      y-accl      z-accl      x-coor      y-coor      z-coor
    22626 -2.46307E-05-1.97630E-03-9.35238E-01 1.65942E-03-1.60467E-02-3.11415E+00 2.75629E-02-4.93386E-02 1.43280E-02 4.79642E+01-2.20318E+01 6.40326E+00



 n o d a l   p r i n t   o u t   f o r   t i m e  s t e p     601                              ( at time 2.9996998E-01 )

 nodal point  x-rot      y-rot       z-rot       x-rot vel   y-rot vel   z-rot vel   x-rot acc   y-rot acc   z-rot acc
    22626  6.75293E-07 2.41099E-06 4.82695E-06 8.26512E-06 5.40454E-06 1.47748E-05 5.63125E-05-1.36416E-04-2.01676E-04



 n o d a l   p r i n t   o u t   f o r   t i m e  s t e p     801                              ( at time 3.9995997E-01 )

 nodal point  x-disp     y-disp      z-disp      x-vel       y-vel       z-vel      x-accl      y-accl      z-accl      x-coor      y-coor      z-coor
    22626  5.94760E-05-3.57407E-03-1.24663E+00 1.92396E-04-1.73896E-02-3.11353E+00-1.46717E-02-1.34296E-02 6.13989E-03 4.79642E+01-2.20334E+01 6.09187E+00



 n o d a l   p r i n t   o u t   f o r   t i m e  s t e p     801                              ( at time 3.9995997E-01 )

 nodal point  x-rot      y-rot       z-rot       x-rot vel   y-rot vel   z-rot vel   x-rot acc   y-rot acc   z-rot acc
    22626  1.58175E-06 3.68035E-06 6.68088E-06 6.24431E-06 2.42572E-05 3.81648E-05-2.02102E-05 1.88545E-04 2.33923E-04



 n o d a l   p r i n t   o u t   f o r   t i m e  s t e p    1001                              ( at time 4.9994997E-01 )

 nodal point  x-disp     y-disp      z-disp      x-vel       y-vel       z-vel      x-accl      y-accl      z-accl      x-coor      y-coor      z-coor
    22626  7.27599E-05-5.63144E-03-1.55782E+00 8.90241E-04-2.38448E-02-3.11085E+00 6.97915E-03-6.45588E-02 2.68439E-02 4.79643E+01-2.20354E+01 5.78068E+00



 n o d a l   p r i n t   o u t   f o r   t i m e  s t e p    1001                              ( at time 4.9994997E-01 )

 nodal point  x-rot      y-rot       z-rot       x-rot vel   y-rot vel   z-rot vel   x-rot acc   y-rot acc   z-rot acc
    22626  1.49423E-06 6.64910E-06 1.18371E-05-4.87482E-06 4.37921E-05 7.19492E-05-1.11202E-04 1.95369E-04 3.37877E-04



 n o d a l   p r i n t   o u t   f o r   t i m e  s t e p    1201                              ( at time 5.9993996E-01 )

 nodal point  x-disp     y-disp      z-disp      x-vel       y-vel       z-vel      x-accl      y-accl      z-accl      x-coor      y-coor      z-coor
    22626  5.29695E-05-8.13744E-03-1.86888E+00-5.62855E-04-2.61215E-02-3.11084E+00-1.45324E-02-2.27697E-02 9.53770E-05 4.79642E+01-2.20379E+01 5.46962E+00



 n o d a l   p r i n t   o u t   f o r   t i m e  s t e p    1201                              ( at time 5.9993996E-01 )

 nodal point  x-rot      y-rot       z-rot       x-rot vel   y-rot vel   z-rot vel   x-rot acc   y-rot acc   z-rot acc
    22626  1.26545E-06 9.87471E-06 1.77362E-05-2.16723E-06 2.64391E-05 5.30415E-05 2.70786E-05-1.73548E-04-1.89095E-04



 n o d a l   p r i n t   o u t   f o r   t i m e  s t e p    1401                              ( at time 6.9992995E-01 )

 nodal point  x-disp     y-disp      z-disp      x-vel       y-vel       z-vel      x-accl      y-accl      z-accl      x-coor      y-coor      z-coor
    22626  1.96911E-05-1.10207E-02-2.17976E+00 7.16281E-04-3.22416E-02-3.10770E+00 1.27926E-02-6.12073E-02 3.14482E-02 4.79642E+01-2.20408E+01 5.15874E+00



 n o d a l   p r i n t   o u t   f o r   t i m e  s t e p    1401                              ( at time 6.9992995E-01 )

 nodal point  x-rot      y-rot       z-rot       x-rot vel   y-rot vel   z-rot vel   x-rot acc   y-rot acc   z-rot acc
    22626  1.10166E-06 1.30702E-05 2.27055E-05-2.45751E-06 3.78730E-05 5.93540E-05-2.90308E-06 1.14351E-04 6.31308E-05



 n o d a l   p r i n t   o u t   f o r   t i m e  s t e p    1601                              ( at time 7.9991994E-01 )

 nodal point  x-disp     y-disp      z-disp      x-vel       y-vel       z-vel      x-accl      y-accl      z-accl      x-coor      y-coor      z-coor
    22626  1.33064E-04-1.45710E-02-2.49038E+00 1.37076E-03-3.68150E-02-3.10600E+00 6.54540E-03-4.57382E-02 1.69580E-02 4.79643E+01-2.20444E+01 4.84812E+00



 n o d a l   p r i n t   o u t   f o r   t i m e  s t e p    1601                              ( at time 7.9991994E-01 )

 nodal point  x-rot      y-rot       z-rot       x-rot vel   y-rot vel   z-rot vel   x-rot acc   y-rot acc   z-rot acc
    22626  1.00689E-06 1.72065E-05 2.96652E-05 2.91626E-06 4.87484E-05 7.63721E-05 5.37431E-05 1.08764E-04 1.70199E-04



 n o d a l   p r i n t   o u t   f o r   t i m e  s t e p    1801                              ( at time 8.9990994E-01 )

 nodal point  x-disp     y-disp      z-disp      x-vel       y-vel       z-vel      x-accl      y-accl      z-accl      x-coor      y-coor      z-coor
    22626  2.07370E-04-1.82141E-02-2.80104E+00-5.09273E-04-3.64329E-02-3.10742E+00-1.88022E-02 3.82156E-03-1.41921E-02 4.79644E+01-2.20480E+01 4.53746E+00



 n o d a l   p r i n t   o u t   f o r   t i m e  s t e p    1801                              ( at time 8.9990994E-01 )

 nodal point  x-rot      y-rot       z-rot       x-rot vel   y-rot vel   z-rot vel   x-rot acc   y-rot acc   z-rot acc
    22626  1.02276E-06 2.13201E-05 3.66558E-05-1.93976E-06 3.79477E-05 6.82260E-05-4.85651E-05-1.08018E-04-8.14694E-05



 n o d a l   p r i n t   o u t   f o r   t i m e  s t e p    2001                              ( at time 9.9989993E-01 )

 nodal point  x-disp     y-disp      z-disp      x-vel       y-vel       z-vel      x-accl      y-accl      z-accl      x-coor      y-coor      z-coor
    22626  1.09781E-04-2.19276E-02-3.11175E+00-8.17321E-04-3.83992E-02-3.10755E+00-3.08078E-03-1.96646E-02-1.34720E-03 4.79643E+01-2.20517E+01 4.22675E+00



 n o d a l   p r i n t   o u t   f o r   t i m e  s t e p    2001                              ( at time 9.9989993E-01 )

 nodal point  x-rot      y-rot       z-rot       x-rot vel   y-rot vel   z-rot vel   x-rot acc   y-rot acc   z-rot acc
    22626  8.55156E-07 2.55343E-05 4.38509E-05-8.87859E-07 4.61673E-05 8.58858E-05 1.05201E-05 8.22045E-05 1.76615E-04



 n o d a l   p r i n t   o u t   f o r   t i m e  s t e p    2201                              ( at time 1.0998899E+00 )

 nodal point  x-disp     y-disp      z-disp      x-vel       y-vel       z-vel      x-accl      y-accl      z-accl      x-coor      y-coor      z-coor
    22626  9.18607E-05-2.58761E-02-3.42246E+00-2.20322E-04-4.02600E-02-3.10712E+00 5.97058E-03-1.86107E-02 4.34681E-03 4.79643E+01-2.20557E+01 3.91605E+00



 n o d a l   p r i n t   o u t   f o r   t i m e  s t e p    2201                              ( at time 1.0998899E+00 )

 nodal point  x-rot      y-rot       z-rot       x-rot vel   y-rot vel   z-rot vel   x-rot acc   y-rot acc   z-rot acc
    22626  9.32230E-07 3.03132E-05 5.24796E-05 5.36643E-06 4.64804E-05 7.50891E-05 6.25492E-05 3.13185E-06-1.07978E-04



 n o d a l   p r i n t   o u t   f o r   t i m e  s t e p    2401                              ( at time 1.1998799E+00 )

 nodal point  x-disp     y-disp      z-disp      x-vel       y-vel       z-vel      x-accl      y-accl      z-accl      x-coor      y-coor      z-coor
    22626  1.34257E-04-2.98901E-02-3.73320E+00 7.34414E-04-3.98020E-02-3.10849E+00 9.54832E-03 4.58104E-03-1.37510E-02 4.79643E+01-2.20597E+01 3.60531E+00



 n o d a l   p r i n t   o u t   f o r   t i m e  s t e p    2401                              ( at time 1.1998799E+00 )

 nodal point  x-rot      y-rot       z-rot       x-rot vel   y-rot vel   z-rot vel   x-rot acc   y-rot acc   z-rot acc
    22626  1.33519E-06 3.44652E-05 5.93268E-05 5.00750E-06 3.99084E-05 6.55325E-05-3.58967E-06-6.57270E-05-9.55757E-05



 n o d a l   p r i n t   o u t   f o r   t i m e  s t e p    2601                              ( at time 1.2998699E+00 )

 nodal point  x-disp     y-disp      z-disp      x-vel       y-vel       z-vel      x-accl      y-accl      z-accl      x-coor      y-coor      z-coor
    22626  1.46168E-04-3.37303E-02-4.04413E+00-4.22320E-04-3.65898E-02-3.11133E+00-1.15685E-02 3.21248E-02-2.83341E-02 4.79643E+01-2.20635E+01 3.29437E+00



 n o d a l   p r i n t   o u t   f o r   t i m e  s t e p    2601                              ( at time 1.2998699E+00 )

 nodal point  x-rot      y-rot       z-rot       x-rot vel   y-rot vel   z-rot vel   x-rot acc   y-rot acc   z-rot acc
    22626  1.63694E-06 3.85441E-05 6.61333E-05-2.56562E-06 4.54979E-05 7.99782E-05-7.57388E-05 5.59011E-05 1.44472E-04



 n o d a l   p r i n t   o u t   f o r   t i m e  s t e p    2801                              ( at time 1.3998599E+00 )

 nodal point  x-disp     y-disp      z-disp      x-vel       y-vel       z-vel      x-accl      y-accl      z-accl      x-coor      y-coor      z-coor
    22626  3.22033E-05-3.71241E-02-4.35543E+00-1.30690E-03-3.14329E-02-3.11511E+00-8.84665E-03 5.15744E-02-3.77979E-02 4.79642E+01-2.20669E+01 2.98307E+00



 n o d a l   p r i n t   o u t   f o r   t i m e  s t e p    2801                              ( at time 1.3998599E+00 )

 nodal point  x-rot      y-rot       z-rot       x-rot vel   y-rot vel   z-rot vel   x-rot acc   y-rot acc   z-rot acc
    22626  1.20214E-06 4.29501E-05 7.39885E-05-4.51439E-06 4.45945E-05 7.34726E-05-1.94897E-05-9.03546E-06-6.50632E-05



 n o d a l   p r i n t   o u t   f o r   t i m e  s t e p    3001                              ( at time 1.4998499E+00 )

 nodal point  x-disp     y-disp      z-disp      x-vel       y-vel       z-vel      x-accl      y-accl      z-accl      x-coor      y-coor      z-coor
    22626 -7.76795E-05-4.01687E-02-4.66702E+00-4.96096E-04-2.97684E-02-3.11713E+00 8.10881E-03 1.66471E-02-2.02414E-02 4.79641E+01-2.20700E+01 2.67148E+00



 n o d a l   p r i n t   o u t   f o r   t i m e  s t e p    3001                              ( at time 1.4998499E+00 )

 nodal point  x-rot      y-rot       z-rot       x-rot vel   y-rot vel   z-rot vel   x-rot acc   y-rot acc   z-rot acc
    22626  8.24216E-07 4.68524E-05 8.05192E-05-1.60307E-06 3.19567E-05 5.71662E-05 2.91162E-05-1.26390E-04-1.63080E-04



 n o d a l   p r i n t   o u t   f o r   t i m e  s t e p    3201                              ( at time 1.5998399E+00 )

 nodal point  x-disp     y-disp      z-disp      x-vel       y-vel       z-vel      x-accl      y-accl      z-accl      x-coor      y-coor      z-coor
    22626 -1.24439E-04-4.30592E-02-4.97879E+00-6.96582E-04-2.75103E-02-3.11940E+00-2.00506E-03 2.25829E-02-2.26997E-02 4.79641E+01-2.20728E+01 2.35971E+00



 n o d a l   p r i n t   o u t   f o r   t i m e  s t e p    3201                              ( at time 1.5998399E+00 )

 nodal point  x-rot      y-rot       z-rot       x-rot vel   y-rot vel   z-rot vel   x-rot acc   y-rot acc   z-rot acc
    22626  5.12527E-07 4.99115E-05 8.53935E-05-1.52582E-06 3.26773E-05 4.80318E-05 7.72528E-07 7.20668E-06-9.13530E-05



 n o d a l   p r i n t   o u t   f o r   t i m e  s t e p    3401                              ( at time 1.6998299E+00 )

 nodal point  x-disp     y-disp      z-disp      x-vel       y-vel       z-vel      x-accl      y-accl      z-accl      x-coor      y-coor      z-coor
    22626 -2.11091E-04-4.55736E-02-5.29089E+00-1.12870E-03-2.24385E-02-3.12326E+00-4.32163E-03 5.07226E-02-3.85490E-02 4.79640E+01-2.20754E+01 2.04762E+00



 n o d a l   p r i n t   o u t   f o r   t i m e  s t e p    3401                              ( at time 1.6998299E+00 )

 nodal point  x-rot      y-rot       z-rot       x-rot vel   y-rot vel   z-rot vel   x-rot acc   y-rot acc   z-rot acc
    22626  2.99047E-07 5.29936E-05 9.04284E-05-3.74401E-06 2.98781E-05 4.77747E-05-2.21841E-05-2.79953E-05-2.57063E-06



 n o d a l   p r i n t   o u t   f o r   t i m e  s t e p    3601                              ( at time 1.7998199E+00 )

 nodal point  x-disp     y-disp      z-disp      x-vel       y-vel       z-vel      x-accl      y-accl      z-accl      x-coor      y-coor      z-coor
    22626 -3.12637E-04-4.75643E-02-5.60339E+00-1.32978E-03-1.77164E-02-3.12732E+00-2.01100E-03 4.72263E-02-4.06330E-02 4.79639E+01-2.20774E+01 1.73511E+00



 n o d a l   p r i n t   o u t   f o r   t i m e  s t e p    3601                              ( at time 1.7998199E+00 )

 nodal point  x-rot      y-rot       z-rot       x-rot vel   y-rot vel   z-rot vel   x-rot acc   y-rot acc   z-rot acc
    22626  1.51091E-07 5.57824E-05 9.51865E-05-3.94773E-07 2.14588E-05 4.21748E-05 3.34958E-05-8.42017E-05-5.60053E-05



 n o d a l   p r i n t   o u t   f o r   t i m e  s t e p    3801                              ( at time 1.8998099E+00 )

 nodal point  x-disp     y-disp      z-disp      x-vel       y-vel       z-vel      x-accl      y-accl      z-accl      x-coor      y-coor      z-coor
    22626 -5.00246E-04-4.92021E-02-5.91621E+00-2.16384E-03-1.51667E-02-3.12982E+00-8.34141E-03 2.54992E-02-2.50007E-02 4.79637E+01-2.20790E+01 1.42229E+00



 n o d a l   p r i n t   o u t   f o r   t i m e  s t e p    3801                              ( at time 1.8998099E+00 )

 nodal point  x-rot      y-rot       z-rot       x-rot vel   y-rot vel   z-rot vel   x-rot acc   y-rot acc   z-rot acc
    22626 -9.27980E-08 5.76811E-05 9.86037E-05 1.53923E-06 1.54661E-05 2.73581E-05 1.93419E-05-5.99332E-05-1.48181E-04



 n o d a l   p r i n t   o u t   f o r   t i m e  s t e p    4001                              ( at time 1.9997999E+00 )

 nodal point  x-disp     y-disp      z-disp      x-vel       y-vel       z-vel      x-accl      y-accl      z-accl      x-coor      y-coor      z-coor
    22626 -6.73711E-04-5.05925E-02-6.22929E+00-1.64956E-03-1.28106E-02-3.13210E+00 5.14327E-03 2.35640E-02-2.28619E-02 4.79635E+01-2.20804E+01 1.10921E+00



 n o d a l   p r i n t   o u t   f o r   t i m e  s t e p    4001                              ( at time 1.9997999E+00 )

 nodal point  x-rot      y-rot       z-rot       x-rot vel   y-rot vel   z-rot vel   x-rot acc   y-rot acc   z-rot acc
    22626  1.11675E-07 5.90154E-05 1.00913E-04 3.41968E-06 1.32749E-05 2.01545E-05 1.88064E-05-2.19134E-05-7.20433E-05



 n o d a l   p r i n t   o u t   f o r   t i m e  s t e p    4201                              ( at time 2.0997899E+00 )

 nodal point  x-disp     y-disp      z-disp      x-vel       y-vel       z-vel      x-accl      y-accl      z-accl      x-coor      y-coor      z-coor
    22626 -8.42817E-04-5.16835E-02-6.54262E+00-1.86286E-03-9.15575E-03-3.13518E+00-2.13317E-03 3.65517E-02-3.07686E-02 4.79633E+01-2.20815E+01 7.95876E-01



 n o d a l   p r i n t   o u t   f o r   t i m e  s t e p    4201                              ( at time 2.0997899E+00 )

 nodal point  x-rot      y-rot       z-rot       x-rot vel   y-rot vel   z-rot vel   x-rot acc   y-rot acc   z-rot acc
    22626  3.97689E-07 5.96594E-05 1.02003E-04-1.42863E-06 3.31898E-06 1.59475E-06-4.84880E-05-9.95694E-05-1.85616E-04



 n o d a l   p r i n t   o u t   f o r   t i m e  s t e p    4401                              ( at time 2.1997798E+00 )

 nodal point  x-disp     y-disp      z-disp      x-vel       y-vel       z-vel      x-accl      y-accl      z-accl      x-coor      y-coor      z-coor
    22626 -1.08489E-03-5.23704E-02-6.85629E+00-2.77435E-03-4.41141E-03-3.13895E+00-9.11581E-03 4.74482E-02-3.76739E-02 4.79631E+01-2.20822E+01 4.82212E-01



 n o d a l   p r i n t   o u t   f o r   t i m e  s t e p    4401                              ( at time 2.1997798E+00 )

 nodal point  x-rot      y-rot       z-rot       x-rot vel   y-rot vel   z-rot vel   x-rot acc   y-rot acc   z-rot acc
    22626  2.18163E-07 5.96533E-05 1.01936E-04-1.24900E-06-2.17652E-06-3.14557E-06 1.79645E-06-5.49605E-05-4.74079E-05



 n o d a l   p r i n t   o u t   f o r   t i m e  s t e p    4601                              ( at time 2.2997698E+00 )

 nodal point  x-disp     y-disp      z-disp      x-vel       y-vel       z-vel      x-accl      y-accl      z-accl      x-coor      y-coor      z-coor
    22626 -1.39405E-03-5.25656E-02-7.17034E+00-3.50967E-03-8.54099E-05-3.14228E+00-7.35390E-03 4.32643E-02-3.32913E-02 4.79628E+01-2.20824E+01 1.68162E-01



 n o d a l   p r i n t   o u t   f o r   t i m e  s t e p    4601                              ( at time 2.2997698E+00 )

 nodal point  x-rot      y-rot       z-rot       x-rot vel   y-rot vel   z-rot vel   x-rot acc   y-rot acc   z-rot acc
    22626 -1.72042E-07 5.93380E-05 1.01561E-04-4.55675E-06-9.79932E-06-1.29998E-05-3.30807E-05-7.62355E-05-9.85522E-05



 n o d a l   p r i n t   o u t   f o r   t i m e  s t e p    4801                              ( at time 2.3997598E+00 )

 nodal point  x-disp     y-disp      z-disp      x-vel       y-vel       z-vel      x-accl      y-accl      z-accl      x-coor      y-coor      z-coor
    22626 -1.76304E-03-5.24786E-02-7.48464E+00-3.60860E-03 1.86479E-03-3.14440E+00-9.89421E-04 1.95040E-02-2.12071E-02 4.79624E+01-2.20823E+01-1.46135E-01



 n o d a l   p r i n t   o u t   f o r   t i m e  s t e p    4801                              ( at time 2.3997598E+00 )

 nodal point  x-rot      y-rot       z-rot       x-rot vel   y-rot vel   z-rot vel   x-rot acc   y-rot acc   z-rot acc
    22626 -7.21165E-07 5.80741E-05 9.90757E-05-6.06896E-06-1.61294E-05-3.36295E-05-1.51236E-05-6.33071E-05-2.06318E-04



 n o d a l   p r i n t   o u t   f o r   t i m e  s t e p    5001                              ( at time 2.4997498E+00 )

 nodal point  x-disp     y-disp      z-disp      x-vel       y-vel       z-vel      x-accl      y-accl      z-accl      x-coor      y-coor      z-coor
    22626 -2.15621E-03-5.21714E-02-7.79916E+00-4.24610E-03 4.96280E-03-3.14711E+00-6.37571E-03 3.09831E-02-2.71419E-02 4.79620E+01-2.20820E+01-4.60662E-01



 n o d a l   p r i n t   o u t   f o r   t i m e  s t e p    5001                              ( at time 2.4997498E+00 )

 nodal point  x-rot      y-rot       z-rot       x-rot vel   y-rot vel   z-rot vel   x-rot acc   y-rot acc   z-rot acc
    22626 -1.17103E-06 5.58409E-05 9.51081E-05-4.06450E-06-2.63633E-05-4.86753E-05 2.00466E-05-1.02350E-04-1.50472E-04



 n o d a l   p r i n t   o u t   f o r   t i m e  s t e p    5201                              ( at time 2.5997398E+00 )

 nodal point  x-disp     y-disp      z-disp      x-vel       y-vel       z-vel      x-accl      y-accl      z-accl      x-coor      y-coor      z-coor
    22626 -2.63094E-03-5.14569E-02-8.11403E+00-5.26163E-03 9.27172E-03-3.15070E+00-1.01563E-02 4.30936E-02-3.59166E-02 4.79615E+01-2.20812E+01-7.75527E-01



 n o d a l   p r i n t   o u t   f o r   t i m e  s t e p    5201                              ( at time 2.5997398E+00 )

 nodal point  x-rot      y-rot       z-rot       x-rot vel   y-rot vel   z-rot vel   x-rot acc   y-rot acc   z-rot acc
    22626 -1.54434E-06 5.27335E-05 8.96634E-05-4.73670E-06-3.60014E-05-6.25053E-05-6.72265E-06-9.63898E-05-1.38315E-04



 n o d a l   p r i n t   o u t   f o r   t i m e  s t e p    5401                              ( at time 2.6997298E+00 )

 nodal point  x-disp     y-disp      z-disp      x-vel       y-vel       z-vel      x-accl      y-accl      z-accl      x-coor      y-coor      z-coor
    22626 -3.20091E-03-5.03223E-02-8.42925E+00-6.42926E-03 1.29761E-02-3.15421E+00-1.16774E-02 3.70476E-02-3.50653E-02 4.79610E+01-2.20801E+01-1.09075E+00



 n o d a l   p r i n t   o u t   f o r   t i m e  s t e p    5401                              ( at time 2.6997298E+00 )

 nodal point  x-rot      y-rot       z-rot       x-rot vel   y-rot vel   z-rot vel   x-rot acc   y-rot acc   z-rot acc
    22626 -1.84514E-06 4.89843E-05 8.31585E-05-1.86012E-06-4.13981E-05-6.68190E-05 2.87686E-05-5.39724E-05-4.31408E-05



 n o d a l   p r i n t   o u t   f o r   t i m e  s t e p    5601                              ( at time 2.7997198E+00 )

 nodal point  x-disp     y-disp      z-disp      x-vel       y-vel       z-vel      x-accl      y-accl      z-accl      x-coor      y-coor      z-coor
    22626 -3.91466E-03-4.88980E-02-8.74475E+00-7.69350E-03 1.51513E-02-3.15635E+00-1.26437E-02 2.17544E-02-2.13978E-02 4.79603E+01-2.20787E+01-1.40625E+00



 n o d a l   p r i n t   o u t   f o r   t i m e  s t e p    5601                              ( at time 2.7997198E+00 )

 nodal point  x-rot      y-rot       z-rot       x-rot vel   y-rot vel   z-rot vel   x-rot acc   y-rot acc   z-rot acc
    22626 -1.98096E-06 4.40898E-05 7.50522E-05 2.27243E-07-5.73579E-05-9.87322E-05 2.08757E-05-1.59614E-04-3.19164E-04



 n o d a l   p r i n t   o u t   f o r   t i m e  s t e p    5801                              ( at time 2.8997098E+00 )

 nodal point  x-disp     y-disp      z-disp      x-vel       y-vel       z-vel      x-accl      y-accl      z-accl      x-coor      y-coor      z-coor
    22626 -4.68662E-03-4.73293E-02-9.06045E+00-7.82362E-03 1.61398E-02-3.15804E+00-1.30128E-03 9.88525E-03-1.69652E-02 4.79595E+01-2.20771E+01-1.72194E+00



 n o d a l   p r i n t   o u t   f o r   t i m e  s t e p    5801                              ( at time 2.8997098E+00 )

 nodal point  x-rot      y-rot       z-rot       x-rot vel   y-rot vel   z-rot vel   x-rot acc   y-rot acc   z-rot acc
    22626 -1.78682E-06 3.76501E-05 6.41419E-05 2.41293E-06-6.65724E-05-1.15408E-04 2.18591E-05-9.21546E-05-1.66772E-04



 n o d a l   p r i n t   o u t   f o r   t i m e  s t e p    6001                              ( at time 2.9996998E+00 )

 nodal point  x-disp     y-disp      z-disp      x-vel       y-vel       z-vel      x-accl      y-accl      z-accl      x-coor      y-coor      z-coor
    22626 -5.50734E-03-4.55975E-02-9.37632E+00-8.83206E-03 1.86345E-02-3.16041E+00-1.00854E-02 2.49496E-02-2.36582E-02 4.79587E+01-2.20754E+01-2.03782E+00



 n o d a l   p r i n t   o u t   f o r   t i m e  s t e p    6001                              ( at time 2.9996998E+00 )

 nodal point  x-rot      y-rot       z-rot       x-rot vel   y-rot vel   z-rot vel   x-rot acc   y-rot acc   z-rot acc
    22626 -1.55709E-06 3.07897E-05 5.25751E-05 6.25255E-07-7.09319E-05-1.21012E-04-1.78785E-05-4.35989E-05-5.60488E-05



 n o d a l   p r i n t   o u t   f o r   t i m e  s t e p    6201                              ( at time 3.0996898E+00 )

 nodal point  x-disp     y-disp      z-disp      x-vel       y-vel       z-vel      x-accl      y-accl      z-accl      x-coor      y-coor      z-coor
    22626 -6.47267E-03-4.36166E-02-9.69245E+00-1.04123E-02 2.05623E-02-3.16240E+00-1.58036E-02 1.92799E-02-1.99314E-02 4.79577E+01-2.20734E+01-2.35395E+00



 n o d a l   p r i n t   o u t   f o r   t i m e  s t e p    6201                              ( at time 3.0996898E+00 )

 nodal point  x-rot      y-rot       z-rot       x-rot vel   y-rot vel   z-rot vel   x-rot acc   y-rot acc   z-rot acc
    22626 -1.60764E-06 2.34311E-05 3.99464E-05-2.02724E-06-7.57576E-05-1.33556E-04-2.65276E-05-4.82622E-05-1.25458E-04



 n o d a l   p r i n t   o u t   f o r   t i m e  s t e p    6401                              ( at time 3.1996798E+00 )

 nodal point  x-disp     y-disp      z-disp      x-vel       y-vel       z-vel      x-accl      y-accl      z-accl      x-coor      y-coor      z-coor
    22626 -7.54411E-03-4.15858E-02-1.00087E+01-1.09308E-02 1.97562E-02-3.16298E+00-5.18557E-03-8.06137E-03-5.74169E-03 4.79566E+01-2.20714E+01-2.67020E+00



 n o d a l   p r i n t   o u t   f o r   t i m e  s t e p    6401                              ( at time 3.1996798E+00 )

 nodal point  x-rot      y-rot       z-rot       x-rot vel   y-rot vel   z-rot vel   x-rot acc   y-rot acc   z-rot acc
    22626 -1.74187E-06 1.53575E-05 2.63464E-05-1.62022E-06-8.52100E-05-1.43740E-04 4.07053E-06-9.45340E-05-1.01842E-04



 n o d a l   p r i n t   o u t   f o r   t i m e  s t e p    6601                              ( at time 3.2996698E+00 )

 nodal point  x-disp     y-disp      z-disp      x-vel       y-vel       z-vel      x-accl      y-accl      z-accl      x-coor      y-coor      z-coor
    22626 -8.65038E-03-3.97062E-02-1.03249E+01-1.11990E-02 1.78217E-02-3.16270E+00-2.68223E-03-1.93472E-02 2.80409E-03 4.79555E+01-2.20695E+01-2.98645E+00



 n o d a l   p r i n t   o u t   f o r   t i m e  s t e p    6601                              ( at time 3.2996698E+00 )

 nodal point  x-rot      y-rot       z-rot       x-rot vel   y-rot vel   z-rot vel   x-rot acc   y-rot acc   z-rot acc
    22626 -2.01246E-06 6.66526E-06 1.15823E-05-2.49634E-06-8.95145E-05-1.51718E-04-8.76200E-06-4.30487E-05-7.97895E-05



 n o d a l   p r i n t   o u t   f o r   t i m e  s t e p    6801                              ( at time 3.3996598E+00 )

 nodal point  x-disp     y-disp      z-disp      x-vel       y-vel       z-vel      x-accl      y-accl      z-accl      x-coor      y-coor      z-coor
    22626 -9.80093E-03-3.80151E-02-1.06412E+01-1.16963E-02 1.60385E-02-3.16262E+00-4.97342E-03-1.78335E-02 7.43939E-04 4.79544E+01-2.20678E+01-3.30268E+00



 n o d a l   p r i n t   o u t   f o r   t i m e  s t e p    6801                              ( at time 3.3996598E+00 )

 nodal point  x-rot      y-rot       z-rot       x-rot vel   y-rot vel   z-rot vel   x-rot acc   y-rot acc   z-rot acc
    22626 -2.06013E-06-2.22830E-06-3.71287E-06-2.55986E-06-8.81433E-05-1.53177E-04-6.35304E-07 1.37128E-05-1.45887E-05



 n o d a l   p r i n t   o u t   f o r   t i m e  s t e p    7001                              ( at time 3.4996498E+00 )

 nodal point  x-disp     y-disp      z-disp      x-vel       y-vel       z-vel      x-accl      y-accl      z-accl      x-coor      y-coor      z-coor
    22626 -1.09989E-02-3.64854E-02-1.09574E+01-1.23226E-02 1.44938E-02-3.16282E+00-6.26403E-03-1.54483E-02-1.96954E-03 4.79532E+01-2.20663E+01-3.61893E+00



 n o d a l   p r i n t   o u t   f o r   t i m e  s t e p    7001                              ( at time 3.4996498E+00 )

 nodal point  x-rot      y-rot       z-rot       x-rot vel   y-rot vel   z-rot vel   x-rot acc   y-rot acc   z-rot acc
    22626 -2.05514E-06-1.08896E-05-1.85468E-05 6.31022E-07-8.71473E-05-1.47295E-04 3.19120E-05 9.96107E-06 5.88172E-05



 n o d a l   p r i n t   o u t   f o r   t i m e  s t e p    7201                              ( at time 3.5996397E+00 )

 nodal point  x-disp     y-disp      z-disp      x-vel       y-vel       z-vel      x-accl      y-accl      z-accl      x-coor      y-coor      z-coor
    22626 -1.22537E-02-3.51426E-02-1.12737E+01-1.24181E-02 1.20927E-02-3.16260E+00-9.55075E-04-2.40143E-02 2.17698E-03 4.79519E+01-2.20649E+01-3.93517E+00



 n o d a l   p r i n t   o u t   f o r   t i m e  s t e p    7201                              ( at time 3.5996397E+00 )

 nodal point  x-rot      y-rot       z-rot       x-rot vel   y-rot vel   z-rot vel   x-rot acc   y-rot acc   z-rot acc
    22626 -2.06684E-06-1.95130E-05-3.30308E-05 1.99441E-06-8.47010E-05-1.38716E-04 1.36353E-05 2.44658E-05 8.58024E-05



 n o d a l   p r i n t   o u t   f o r   t i m e  s t e p    7401                              ( at time 3.6996297E+00 )

 nodal point  x-disp     y-disp      z-disp      x-vel       y-vel       z-vel      x-accl      y-accl      z-accl      x-coor      y-coor      z-coor
    22626 -1.34836E-02-3.40991E-02-1.15899E+01-1.21445E-02 8.70216E-03-3.16159E+00 2.73594E-03-3.39083E-02 1.01195E-02 4.79507E+01-2.20639E+01-4.25135E+00



 n o d a l   p r i n t   o u t   f o r   t i m e  s t e p    7401                              ( at time 3.6996297E+00 )

 nodal point  x-rot      y-rot       z-rot       x-rot vel   y-rot vel   z-rot vel   x-rot acc   y-rot acc   z-rot acc
    22626 -1.81435E-06-2.78008E-05-4.68250E-05 3.64172E-06-8.12358E-05-1.36353E-04 1.64747E-05 3.46555E-05 2.36348E-05



 n o d a l   p r i n t   o u t   f o r   t i m e  s t e p    7601                              ( at time 3.7996197E+00 )

 nodal point  x-disp     y-disp      z-disp      x-vel       y-vel       z-vel      x-accl      y-accl      z-accl      x-coor      y-coor      z-coor
    22626 -1.46686E-02-3.33664E-02-1.19059E+01-1.15838E-02 6.00571E-03-3.16089E+00 5.60775E-03-2.69673E-02 6.99591E-03 4.79495E+01-2.20632E+01-4.56744E+00



 n o d a l   p r i n t   o u t   f o r   t i m e  s t e p    7601                              ( at time 3.7996197E+00 )

 nodal point  x-rot      y-rot       z-rot       x-rot vel   y-rot vel   z-rot vel   x-rot acc   y-rot acc   z-rot acc
    22626 -1.35134E-06-3.56147E-05-6.00953E-05 5.30394E-06-7.23337E-05-1.21881E-04 1.66238E-05 8.90296E-05 1.44728E-04



 n o d a l   p r i n t   o u t   f o r   t i m e  s t e p    7801                              ( at time 3.8996097E+00 )

 nodal point  x-disp     y-disp      z-disp      x-vel       y-vel       z-vel      x-accl      y-accl      z-accl      x-coor      y-coor      z-coor
    22626 -1.57961E-02-3.28655E-02-1.22220E+01-1.09415E-02 4.21599E-03-3.16081E+00 6.42356E-03-1.78989E-02 8.27394E-04 4.79484E+01-2.20627E+01-4.88349E+00



 n o d a l   p r i n t   o u t   f o r   t i m e  s t e p    7801                              ( at time 3.8996097E+00 )

 nodal point  x-rot      y-rot       z-rot       x-rot vel   y-rot vel   z-rot vel   x-rot acc   y-rot acc   z-rot acc
    22626 -9.91584E-07-4.22146E-05-7.12167E-05 6.97567E-07-5.76854E-05-9.62688E-05-4.60682E-05 1.46498E-04 2.56152E-04



 n o d a l   p r i n t   o u t   f o r   t i m e  s t e p    8001                              ( at time 3.9995997E+00 )

 nodal point  x-disp     y-disp      z-disp      x-vel       y-vel       z-vel      x-accl      y-accl      z-accl      x-coor      y-coor      z-coor
    22626 -1.68638E-02-3.24951E-02-1.25381E+01-1.03940E-02 3.14497E-03-3.16114E+00 5.47584E-03-1.07113E-02-3.31912E-03 4.79473E+01-2.20623E+01-5.19956E+00



 n o d a l   p r i n t   o u t   f o r   t i m e  s t e p    8001                              ( at time 3.9995997E+00 )

 nodal point  x-rot      y-rot       z-rot       x-rot vel   y-rot vel   z-rot vel   x-rot acc   y-rot acc   z-rot acc
    22626 -8.61872E-07-4.74650E-05-7.99042E-05-2.90055E-07-4.66953E-05-8.00244E-05-9.87722E-06 1.09912E-04 1.62461E-04



 n o d a l   p r i n t   o u t   f o r   t i m e  s t e p    8201                              ( at time 4.0995897E+00 )

 nodal point  x-disp     y-disp      z-disp      x-vel       y-vel       z-vel      x-accl      y-accl      z-accl      x-coor      y-coor      z-coor
    22626 -1.78204E-02-3.22957E-02-1.28541E+01-8.60109E-03 6.37462E-04-3.16065E+00 1.79307E-02-2.50776E-02 4.92860E-03 4.79464E+01-2.20621E+01-5.51562E+00



 n o d a l   p r i n t   o u t   f o r   t i m e  s t e p    8201                              ( at time 4.0995897E+00 )

 nodal point  x-rot      y-rot       z-rot       x-rot vel   y-rot vel   z-rot vel   x-rot acc   y-rot acc   z-rot acc
    22626 -8.70945E-07-5.15918E-05-8.68770E-05-2.00125E-07-3.22534E-05-5.64702E-05 8.99396E-07 1.44434E-04 2.35565E-04



 n o d a l   p r i n t   o u t   f o r   t i m e  s t e p    8401                              ( at time 4.1995797E+00 )

 nodal point  x-disp     y-disp      z-disp      x-vel       y-vel       z-vel      x-accl      y-accl      z-accl      x-coor      y-coor      z-coor
    22626 -1.86016E-02-3.23580E-02-1.31701E+01-6.96624E-03-1.79682E-03-3.16004E+00 1.63501E-02-2.43452E-02 6.03737E-03 4.79456E+01-2.20621E+01-5.83162E+00



 n o d a l   p r i n t   o u t   f o r   t i m e  s t e p    8401                              ( at time 4.1995797E+00 )

 nodal point  x-rot      y-rot       z-rot       x-rot vel   y-rot vel   z-rot vel   x-rot acc   y-rot acc   z-rot acc
    22626 -8.54894E-07-5.39672E-05-9.08285E-05-2.09152E-07-1.39869E-05-2.28041E-05-9.02840E-08 1.82683E-04 3.36695E-04



 n o d a l   p r i n t   o u t   f o r   t i m e  s t e p    8601                              ( at time 4.2995697E+00 )

 nodal point  x-disp     y-disp      z-disp      x-vel       y-vel       z-vel      x-accl      y-accl      z-accl      x-coor      y-coor      z-coor
    22626 -1.92349E-02-3.26565E-02-1.34861E+01-5.55419E-03-3.87554E-03-3.15987E+00 1.41219E-02-2.07894E-02 1.67625E-03 4.79449E+01-2.20624E+01-6.14757E+00



 n o d a l   p r i n t   o u t   f o r   t i m e  s t e p    8601                              ( at time 4.2995697E+00 )

 nodal point  x-rot      y-rot       z-rot       x-rot vel   y-rot vel   z-rot vel   x-rot acc   y-rot acc   z-rot acc
    22626 -8.82066E-07-5.44081E-05-9.16868E-05-4.96445E-07 2.93345E-06 4.61000E-06-2.87322E-06 1.69221E-04 2.74169E-04



 n o d a l   p r i n t   o u t   f o r   t i m e  s t e p    8801                              ( at time 4.3995597E+00 )

 nodal point  x-disp     y-disp      z-disp      x-vel       y-vel       z-vel      x-accl      y-accl      z-accl      x-coor      y-coor      z-coor
    22626 -1.97013E-02-3.30854E-02-1.38021E+01-3.79863E-03-4.74080E-03-3.16048E+00 1.75574E-02-8.65350E-03-6.09221E-03 4.79445E+01-2.20629E+01-6.46355E+00



 n o d a l   p r i n t   o u t   f o r   t i m e  s t e p    8801                              ( at time 4.3995597E+00 )

 nodal point  x-rot      y-rot       z-rot       x-rot vel   y-rot vel   z-rot vel   x-rot acc   y-rot acc   z-rot acc
    22626 -8.56046E-07-5.31306E-05-8.93656E-05 8.10058E-07 2.22300E-05 4.02769E-05 1.30664E-05 1.92985E-04 3.56705E-04



 n o d a l   p r i n t   o u t   f o r   t i m e  s t e p    9001                              ( at time 4.4995497E+00 )

 nodal point  x-disp     y-disp      z-disp      x-vel       y-vel       z-vel      x-accl      y-accl      z-accl      x-coor      y-coor      z-coor
    22626 -1.99989E-02-3.36547E-02-1.41181E+01-2.04301E-03-6.99567E-03-3.16010E+00 1.75578E-02-2.25508E-02 3.87944E-03 4.79442E+01-2.20634E+01-6.77956E+00



 n o d a l   p r i n t   o u t   f o r   t i m e  s t e p    9001                              ( at time 4.4995497E+00 )

 nodal point  x-rot      y-rot       z-rot       x-rot vel   y-rot vel   z-rot vel   x-rot acc   y-rot acc   z-rot acc
    22626 -7.20872E-07-4.96644E-05-8.32612E-05 3.48881E-06 4.40477E-05 7.67303E-05 2.67901E-05 2.18198E-04 3.64569E-04



 n o d a l   p r i n t   o u t   f o r   t i m e  s t e p    9201                              ( at time 4.5995397E+00 )

 nodal point  x-disp     y-disp      z-disp      x-vel       y-vel       z-vel      x-accl      y-accl      z-accl      x-coor      y-coor      z-coor
    22626 -2.01102E-02-3.45085E-02-1.44340E+01-1.18146E-04-9.89678E-03-3.15950E+00 1.92506E-02-2.90140E-02 5.94914E-03 4.79441E+01-2.20643E+01-7.09551E+00



 n o d a l   p r i n t   o u t   f o r   t i m e  s t e p    9201                              ( at time 4.5995397E+00 )

 nodal point  x-rot      y-rot       z-rot       x-rot vel   y-rot vel   z-rot vel   x-rot acc   y-rot acc   z-rot acc
    22626 -4.17164E-07-4.44460E-05-7.41523E-05 4.17567E-06 6.01527E-05 1.03078E-04 6.86926E-06 1.61067E-04 2.63499E-04



 n o d a l   p r i n t   o u t   f o r   t i m e  s t e p    9401                              ( at time 4.6995297E+00 )

 nodal point  x-disp     y-disp      z-disp      x-vel       y-vel       z-vel      x-accl      y-accl      z-accl      x-coor      y-coor      z-coor
    22626 -2.00053E-02-3.55790E-02-1.47499E+01 2.13620E-03-1.15140E-02-3.15935E+00 2.25457E-02-1.61738E-02 1.51650E-03 4.79442E+01-2.20654E+01-7.41142E+00



 n o d a l   p r i n t   o u t   f o r   t i m e  s t e p    9401                              ( at time 4.6995297E+00 )

 nodal point  x-rot      y-rot       z-rot       x-rot vel   y-rot vel   z-rot vel   x-rot acc   y-rot acc   z-rot acc
    22626 -4.30894E-08-3.72913E-05-6.17105E-05 2.43321E-06 8.48061E-05 1.46236E-04-1.74263E-05 2.46559E-04 4.31632E-04



 n o d a l   p r i n t   o u t   f o r   t i m e  s t e p    9601                              ( at time 4.7995197E+00 )

 nodal point  x-disp     y-disp      z-disp      x-vel       y-vel       z-vel      x-accl      y-accl      z-accl      x-coor      y-coor      z-coor
    22626 -1.96725E-02-3.68291E-02-1.50658E+01 4.15697E-03-1.29699E-02-3.15795E+00 2.02098E-02-1.45607E-02 1.39561E-02 4.79445E+01-2.20666E+01-7.72727E+00



 n o d a l   p r i n t   o u t   f o r   t i m e  s t e p    9601                              ( at time 4.7995197E+00 )

 nodal point  x-rot      y-rot       z-rot       x-rot vel   y-rot vel   z-rot vel   x-rot acc   y-rot acc   z-rot acc
    22626 -2.11982E-07-2.69511E-05-4.45270E-05-3.71342E-06 1.23351E-04 1.85965E-04-6.14725E-05 3.85492E-04 3.97323E-04



 n o d a l   p r i n t   o u t   f o r   t i m e  s t e p    9801                              ( at time 4.8995097E+00 )

 nodal point  x-disp     y-disp      z-disp      x-vel       y-vel       z-vel      x-accl      y-accl      z-accl      x-coor      y-coor      z-coor
    22626 -1.91593E-02-3.81414E-02-1.53814E+01 6.18011E-03-1.36099E-02-3.15517E+00 2.02334E-02-6.40068E-03 2.78024E-02 4.79450E+01-2.20679E+01-8.04292E+00



 n o d a l   p r i n t   o u t   f o r   t i m e  s t e p    9801                              ( at time 4.8995097E+00 )

 nodal point  x-rot      y-rot       z-rot       x-rot vel   y-rot vel   z-rot vel   x-rot acc   y-rot acc   z-rot acc
    22626  3.86730E-07-1.24394E-05-2.42620E-05 7.63530E-06 1.75088E-04 2.16777E-04 1.13499E-04 5.17423E-04 3.08152E-04



 n o d a l   p r i n t   o u t   f o r   t i m e  s t e p   10001                              ( at time 4.9994997E+00 )

 nodal point  x-disp     y-disp      z-disp      x-vel       y-vel       z-vel      x-accl      y-accl      z-accl      x-coor      y-coor      z-coor
    22626 -1.84086E-02-3.96027E-02-1.56965E+01 8.79757E-03-1.50215E-02-3.14603E+00 2.61771E-02-1.41176E-02 9.14376E-02 4.79458E+01-2.20694E+01-8.35798E+00



 n o d a l   p r i n t   o u t   f o r   t i m e  s t e p   10001                              ( at time 4.9994997E+00 )

 nodal point  x-rot      y-rot       z-rot       x-rot vel   y-rot vel   z-rot vel   x-rot acc   y-rot acc   z-rot acc
    22626  1.10260E-06 9.76800E-06-1.06869E-06 2.36765E-05 2.67254E-04 2.31388E-04 1.60428E-04 9.21746E-04 1.46122E-04



 n o d a l   p r i n t   o u t   f o r   t i m e  s t e p   10202                              ( at time 5.0999896E+00 )

 nodal point  x-disp     y-disp      z-disp      x-vel       y-vel       z-vel      x-accl      y-accl      z-accl      x-coor      y-coor      z-coor
    22626 -1.74041E-02-4.10915E-02-1.60120E+01 1.08368E-02-1.43431E-02-3.13204E+00 2.02928E-02 6.75139E-03 1.39220E-01 4.79468E+01-2.20709E+01-8.67347E+00



 n o d a l   p r i n t   o u t   f o r   t i m e  s t e p   10202                              ( at time 5.0999896E+00 )

 nodal point  x-rot      y-rot       z-rot       x-rot vel   y-rot vel   z-rot vel   x-rot acc   y-rot acc   z-rot acc
    22626  6.73038E-06 4.47293E-05 2.32018E-05 8.31962E-05 4.33121E-04 2.43742E-04 5.92297E-04 1.65059E-03 1.22940E-04



 n o d a l   p r i n t   o u t   f o r   t i m e  s t e p   10402                              ( at time 5.1999796E+00 )

 nodal point  x-disp     y-disp      z-disp      x-vel       y-vel       z-vel      x-accl      y-accl      z-accl      x-coor      y-coor      z-coor
    22626 -1.62001E-02-4.23827E-02-1.63242E+01 1.39849E-02-1.15102E-02-3.11298E+00 3.14842E-02 2.83315E-02 1.90608E-01 4.79480E+01-2.20722E+01-8.98572E+00



 n o d a l   p r i n t   o u t   f o r   t i m e  s t e p   10402                              ( at time 5.1999796E+00 )

 nodal point  x-rot      y-rot       z-rot       x-rot vel   y-rot vel   z-rot vel   x-rot acc   y-rot acc   z-rot acc
    22626  1.92760E-05 9.71768E-05 4.70233E-05 1.59997E-04 6.20189E-04 2.36948E-04 7.68079E-04 1.87086E-03-6.79433E-05



 n o d a l   p r i n t   o u t   f o r   t i m e  s t e p   10602                              ( at time 5.2999696E+00 )

 nodal point  x-disp     y-disp      z-disp      x-vel       y-vel       z-vel      x-accl      y-accl      z-accl      x-coor      y-coor      z-coor
    22626 -1.46871E-02-4.33727E-02-1.66343E+01 1.66463E-02-8.48379E-03-3.08872E+00 2.66165E-02 3.02674E-02 2.42694E-01 4.79495E+01-2.20732E+01-9.29584E+00



 n o d a l   p r i n t   o u t   f o r   t i m e  s t e p   10602                              ( at time 5.2999696E+00 )

 nodal point  x-rot      y-rot       z-rot       x-rot vel   y-rot vel   z-rot vel   x-rot acc   y-rot acc   z-rot acc
    22626  4.11925E-05 1.70603E-04 6.89568E-05 2.72264E-04 8.48498E-04 2.14355E-04 1.12278E-03 2.28332E-03-2.25957E-04



 n o d a l   p r i n t   o u t   f o r   t i m e  s t e p   10802                              ( at time 5.3999596E+00 )

 nodal point  x-disp     y-disp      z-disp      x-vel       y-vel       z-vel      x-accl      y-accl      z-accl      x-coor      y-coor      z-coor
    22626 -1.28784E-02-4.39191E-02-1.69418E+01 1.99723E-02-3.64592E-03-3.06161E+00 3.32631E-02 4.83836E-02 2.71109E-01 4.79513E+01-2.20737E+01-9.60333E+00



 n o d a l   p r i n t   o u t   f o r   t i m e  s t e p   10802                              ( at time 5.3999596E+00 )

 nodal point  x-rot      y-rot       z-rot       x-rot vel   y-rot vel   z-rot vel   x-rot acc   y-rot acc   z-rot acc
    22626  7.53254E-05 2.67429E-04 8.74381E-05 4.05619E-04 1.10424E-03 1.66682E-04 1.33369E-03 2.55771E-03-4.76772E-04



 n o d a l   p r i n t   o u t   f o r   t i m e  s t e p   11002                              ( at time 5.4999496E+00 )

 nodal point  x-disp     y-disp      z-disp      x-vel       y-vel       z-vel      x-accl      y-accl      z-accl      x-coor      y-coor      z-coor
    22626 -1.07219E-02-4.40066E-02-1.72464E+01 2.32464E-02 2.17245E-03-3.03055E+00 3.27452E-02 5.81896E-02 3.10584E-01 4.79535E+01-2.20738E+01-9.90788E+00



 n o d a l   p r i n t   o u t   f o r   t i m e  s t e p   11002                              ( at time 5.4999496E+00 )

 nodal point  x-rot      y-rot       z-rot       x-rot vel   y-rot vel   z-rot vel   x-rot acc   y-rot acc   z-rot acc
    22626  1.23102E-04 3.92010E-04 1.01285E-04 5.64351E-04 1.38444E-03 1.07641E-04 1.58747E-03 2.80223E-03-5.90471E-04



 n o d a l   p r i n t   o u t   f o r   t i m e  s t e p   11202                              ( at time 5.5999396E+00 )

 nodal point  x-disp     y-disp      z-disp      x-vel       y-vel       z-vel      x-accl      y-accl      z-accl      x-coor      y-coor      z-coor
    22626 -8.19445E-03-4.34478E-02-1.75478E+01 2.66556E-02 8.84596E-03-2.99706E+00 3.40945E-02 6.67418E-02 3.34938E-01 4.79560E+01-2.20732E+01-1.02093E+01



 n o d a l   p r i n t   o u t   f o r   t i m e  s t e p   11202                              ( at time 5.5999396E+00 )

 nodal point  x-rot      y-rot       z-rot       x-rot vel   y-rot vel   z-rot vel   x-rot acc   y-rot acc   z-rot acc
    22626  1.86658E-04 5.45984E-04 1.09833E-04 7.14672E-04 1.71045E-03 5.16121E-05 1.50336E-03 3.26050E-03-5.60346E-04



 n o d a l   p r i n t   o u t   f o r   t i m e  s t e p   11402                              ( at time 5.6999296E+00 )

 nodal point  x-disp     y-disp      z-disp      x-vel       y-vel       z-vel      x-accl      y-accl      z-accl      x-coor      y-coor      z-coor
    22626 -5.34565E-03-4.22007E-02-1.78456E+01 3.02642E-02 1.68581E-02-2.96080E+00 3.60904E-02 8.01292E-02 3.62670E-01 4.79588E+01-2.20720E+01-1.05071E+01



 n o d a l   p r i n t   o u t   f o r   t i m e  s t e p   11402                              ( at time 5.6999296E+00 )

 nodal point  x-rot      y-rot       z-rot       x-rot vel   y-rot vel   z-rot vel   x-rot acc   y-rot acc   z-rot acc
    22626  2.66124E-04 7.33233E-04 1.11880E-04 8.89726E-04 2.03541E-03-1.77421E-05 1.75071E-03 3.24990E-03-6.93609E-04



 n o d a l   p r i n t   o u t   f o r   t i m e  s t e p   11602                              ( at time 5.7999195E+00 )

 nodal point  x-disp     y-disp      z-disp      x-vel       y-vel       z-vel      x-accl      y-accl      z-accl      x-coor      y-coor      z-coor
    22626 -2.13062E-03-4.01074E-02-1.81398E+01 3.40610E-02 2.42494E-02-2.92283E+00 3.79715E-02 7.39206E-02 3.79679E-01 4.79620E+01-2.20699E+01-1.08013E+01



 n o d a l   p r i n t   o u t   f o r   t i m e  s t e p   11602                              ( at time 5.7999195E+00 )

 nodal point  x-rot      y-rot       z-rot       x-rot vel   y-rot vel   z-rot vel   x-rot acc   y-rot acc   z-rot acc
    22626  3.64003E-04 9.53594E-04 1.06185E-04 1.05821E-03 2.37399E-03-9.10173E-05 1.68504E-03 3.38612E-03-7.32825E-04



 n o d a l   p r i n t   o u t   f o r   t i m e  s t e p   11802                              ( at time 5.8999095E+00 )

 nodal point  x-disp     y-disp      z-disp      x-vel       y-vel       z-vel      x-accl      y-accl      z-accl      x-coor      y-coor      z-coor
    22626  1.48633E-03-3.73440E-02-1.84300E+01 3.84514E-02 3.13450E-02-2.88212E+00 4.39081E-02 7.09629E-02 4.07160E-01 4.79657E+01-2.20671E+01-1.10915E+01



 n o d a l   p r i n t   o u t   f o r   t i m e  s t e p   11802                              ( at time 5.8999095E+00 )

 nodal point  x-rot      y-rot       z-rot       x-rot vel   y-rot vel   z-rot vel   x-rot acc   y-rot acc   z-rot acc
    22626  4.78115E-04 1.21002E-03 9.15891E-05 1.23932E-03 2.74870E-03-1.92605E-04 1.81129E-03 3.74752E-03-1.01598E-03



 n o d a l   p r i n t   o u t   f o r   t i m e  s t e p   12002                              ( at time 5.9998995E+00 )

 nodal point  x-disp     y-disp      z-disp      x-vel       y-vel       z-vel      x-accl      y-accl      z-accl      x-coor      y-coor      z-coor
    22626  5.61879E-03-3.37966E-02-1.87161E+01 4.41293E-02 3.95264E-02-2.83914E+00 5.67848E-02 8.18221E-02 4.29826E-01 4.79698E+01-2.20636E+01-1.13776E+01



 n o d a l   p r i n t   o u t   f o r   t i m e  s t e p   12002                              ( at time 5.9998995E+00 )

 nodal point  x-rot      y-rot       z-rot       x-rot vel   y-rot vel   z-rot vel   x-rot acc   y-rot acc   z-rot acc
    22626  6.13619E-04 1.50151E-03 6.72952E-05 1.45606E-03 3.08015E-03-2.92803E-04 2.16762E-03 3.31479E-03-1.00209E-03



 n o d a l   p r i n t   o u t   f o r   t i m e  s t e p   12202                              ( at time 6.0998895E+00 )

 nodal point  x-disp     y-disp      z-disp      x-vel       y-vel       z-vel      x-accl      y-accl      z-accl      x-coor      y-coor      z-coor
    22626  1.03567E-02-2.94584E-02-1.89978E+01 5.02554E-02 4.70474E-02-2.79588E+00 6.12673E-02 7.52176E-02 4.32712E-01 4.79745E+01-2.20592E+01-1.16593E+01



 n o d a l   p r i n t   o u t   f o r   t i m e  s t e p   12202                              ( at time 6.0998895E+00 )

 nodal point  x-rot      y-rot       z-rot       x-rot vel   y-rot vel   z-rot vel   x-rot acc   y-rot acc   z-rot acc
    22626  7.67769E-04 1.82664E-03 3.22008E-05 1.62592E-03 3.43079E-03-4.04732E-04 1.69868E-03 3.50675E-03-1.11939E-03



 n o d a l   p r i n t   o u t   f o r   t i m e  s t e p   12402                              ( at time 6.1998795E+00 )

 nodal point  x-disp     y-disp      z-disp      x-vel       y-vel       z-vel      x-accl      y-accl      z-accl      x-coor      y-coor      z-coor
    22626  1.56745E-02-2.44376E-02-1.92751E+01 5.66901E-02 5.42280E-02-2.75095E+00 6.43530E-02 7.18130E-02 4.49278E-01 4.79799E+01-2.20542E+01-1.19366E+01



 n o d a l   p r i n t   o u t   f o r   t i m e  s t e p   12402                              ( at time 6.1998795E+00 )

 nodal point  x-rot      y-rot       z-rot       x-rot vel   y-rot vel   z-rot vel   x-rot acc   y-rot acc   z-rot acc
    22626  9.40288E-04 2.18737E-03-1.30243E-05 1.83710E-03 3.76931E-03-5.10090E-04 2.11203E-03 3.38553E-03-1.05369E-03



 n o d a l   p r i n t   o u t   f o r   t i m e  s t e p   12602                              ( at time 6.2998695E+00 )

 nodal point  x-disp     y-disp      z-disp      x-vel       y-vel       z-vel      x-accl      y-accl      z-accl      x-coor      y-coor      z-coor
    22626  2.17519E-02-1.86104E-02-1.95479E+01 6.50921E-02 6.12017E-02-2.70404E+00 8.40290E-02 6.97446E-02 4.69217E-01 4.79859E+01-2.20484E+01-1.22094E+01



 n o d a l   p r i n t   o u t   f o r   t i m e  s t e p   12602                              ( at time 6.2998695E+00 )

 nodal point  x-rot      y-rot       z-rot       x-rot vel   y-rot vel   z-rot vel   x-rot acc   y-rot acc   z-rot acc
    22626  1.13566E-03 2.58007E-03-6.96585E-05 2.04894E-03 4.10320E-03-6.19860E-04 2.11861E-03 3.33922E-03-1.09780E-03



 n o d a l   p r i n t   o u t   f o r   t i m e  s t e p   12802                              ( at time 6.3998595E+00 )

 nodal point  x-disp     y-disp      z-disp      x-vel       y-vel       z-vel      x-accl      y-accl      z-accl      x-coor      y-coor      z-coor
    22626  2.86310E-02-1.21356E-02-1.98159E+01 7.30880E-02 6.76997E-02-2.65728E+00 7.99667E-02 6.49857E-02 4.67567E-01 4.79928E+01-2.20419E+01-1.24774E+01



 n o d a l   p r i n t   o u t   f o r   t i m e  s t e p   12802                              ( at time 6.3998595E+00 )

 nodal point  x-rot      y-rot       z-rot       x-rot vel   y-rot vel   z-rot vel   x-rot acc   y-rot acc   z-rot acc
    22626  1.35050E-03 3.00688E-03-1.38318E-04 2.24309E-03 4.42120E-03-7.30966E-04 1.94170E-03 3.18033E-03-1.11117E-03



 n o d a l   p r i n t   o u t   f o r   t i m e  s t e p   13002                              ( at time 6.4998495E+00 )

 nodal point  x-disp     y-disp      z-disp      x-vel       y-vel       z-vel      x-accl      y-accl      z-accl      x-coor      y-coor      z-coor
    22626  3.63301E-02-4.98454E-03-2.00792E+01 8.10229E-02 7.56216E-02-2.60952E+00 7.93569E-02 7.92275E-02 4.77675E-01 4.80005E+01-2.20348E+01-1.27407E+01



 n o d a l   p r i n t   o u t   f o r   t i m e  s t e p   13002                              ( at time 6.4998495E+00 )

 nodal point  x-rot      y-rot       z-rot       x-rot vel   y-rot vel   z-rot vel   x-rot acc   y-rot acc   z-rot acc
    22626  1.58614E-03 3.46437E-03-2.16739E-04 2.47859E-03 4.73506E-03-8.44961E-04 2.35530E-03 3.13892E-03-1.14006E-03



 n o d a l   p r i n t   o u t   f o r   t i m e  s t e p   13202                              ( at time 6.5998395E+00 )

 nodal point  x-disp     y-disp      z-disp      x-vel       y-vel       z-vel      x-accl      y-accl      z-accl      x-coor      y-coor      z-coor
    22626  4.49180E-02 3.01353E-03-2.03376E+01 9.10842E-02 8.35798E-02-2.55930E+00 1.00623E-01 7.95893E-02 5.02313E-01 4.80091E+01-2.20268E+01-1.29991E+01



 n o d a l   p r i n t   o u t   f o r   t i m e  s t e p   13202                              ( at time 6.5998395E+00 )

 nodal point  x-rot      y-rot       z-rot       x-rot vel   y-rot vel   z-rot vel   x-rot acc   y-rot acc   z-rot acc
    22626  1.84417E-03 3.95300E-03-3.07283E-04 2.68872E-03 5.03825E-03-9.63743E-04 2.10147E-03 3.03221E-03-1.18794E-03



 n o d a l   p r i n t   o u t   f o r   t i m e  s t e p   13402                              ( at time 6.6998295E+00 )

 nodal point  x-disp     y-disp      z-disp      x-vel       y-vel       z-vel      x-accl      y-accl      z-accl      x-coor      y-coor      z-coor
    22626  5.44911E-02 1.17075E-02-2.05909E+01 1.00834E-01 9.06960E-02-2.50843E+00 9.75045E-02 7.11698E-02 5.08698E-01 4.80187E+01-2.20181E+01-1.32524E+01



 n o d a l   p r i n t   o u t   f o r   t i m e  s t e p   13402                              ( at time 6.6998295E+00 )

 nodal point  x-rot      y-rot       z-rot       x-rot vel   y-rot vel   z-rot vel   x-rot acc   y-rot acc   z-rot acc
    22626  2.12377E-03 4.47052E-03-4.09976E-04 2.91039E-03 5.31126E-03-1.08339E-03 2.21692E-03 2.73039E-03-1.19661E-03



 n o d a l   p r i n t   o u t   f o r   t i m e  s t e p   13602                              ( at time 6.7998195E+00 )

 nodal point  x-disp     y-disp      z-disp      x-vel       y-vel       z-vel      x-accl      y-accl      z-accl      x-coor      y-coor      z-coor
    22626  6.50193E-02 2.12025E-02-2.08391E+01 1.10325E-01 9.81701E-02-2.45515E+00 9.49250E-02 7.47485E-02 5.32898E-01 4.80292E+01-2.20086E+01-1.35006E+01



 n o d a l   p r i n t   o u t   f o r   t i m e  s t e p   13602                              ( at time 6.7998195E+00 )

 nodal point  x-rot      y-rot       z-rot       x-rot vel   y-rot vel   z-rot vel   x-rot acc   y-rot acc   z-rot acc
    22626  2.42608E-03 5.01626E-03-5.24733E-04 3.12426E-03 5.61555E-03-1.20029E-03 2.13891E-03 3.04324E-03-1.16908E-03



 n o d a l   p r i n t   o u t   f o r   t i m e  s t e p   13802                              ( at time 6.8998095E+00 )

 nodal point  x-disp     y-disp      z-disp      x-vel       y-vel       z-vel      x-accl      y-accl      z-accl      x-coor      y-coor      z-coor
    22626  7.65085E-02 3.13740E-02-2.10819E+01 1.19787E-01 1.05597E-01-2.40201E+00 9.46300E-02 7.42774E-02 5.31389E-01 4.80407E+01-2.19984E+01-1.37434E+01



 n o d a l   p r i n t   o u t   f o r   t i m e  s t e p   13802                              ( at time 6.8998095E+00 )

 nodal point  x-rot      y-rot       z-rot       x-rot vel   y-rot vel   z-rot vel   x-rot acc   y-rot acc   z-rot acc
    22626  2.75124E-03 5.59152E-03-6.51636E-04 3.37024E-03 5.88444E-03-1.33154E-03 2.46006E-03 2.68912E-03-1.31263E-03



 n o d a l   p r i n t   o u t   f o r   t i m e  s t e p   14002                              ( at time 6.9997995E+00 )

 nodal point  x-disp     y-disp      z-disp      x-vel       y-vel       z-vel      x-accl      y-accl      z-accl      x-coor      y-coor      z-coor
    22626  8.89575E-02 4.23182E-02-2.13194E+01 1.28808E-01 1.12766E-01-2.34850E+00 9.02143E-02 7.16961E-02 5.35154E-01 4.80531E+01-2.19875E+01-1.39809E+01



 n o d a l   p r i n t   o u t   f o r   t i m e  s t e p   14002                              ( at time 6.9997995E+00 )

 nodal point  x-rot      y-rot       z-rot       x-rot vel   y-rot vel   z-rot vel   x-rot acc   y-rot acc   z-rot acc
    22626  3.09961E-03 6.19406E-03-7.90808E-04 3.60099E-03 6.15216E-03-1.45046E-03 2.30773E-03 2.67749E-03-1.18935E-03



 n o d a l   p r i n t   o u t   f o r   t i m e  s t e p   14202                              ( at time 7.0997895E+00 )

 nodal point  x-disp     y-disp      z-disp      x-vel       y-vel       z-vel      x-accl      y-accl      z-accl      x-coor      y-coor      z-coor
    22626  1.02258E-01 5.38949E-02-2.15515E+01 1.37232E-01 1.19206E-01-2.29429E+00 8.42526E-02 6.44039E-02 5.42190E-01 4.80664E+01-2.19759E+01-1.42130E+01



 n o d a l   p r i n t   o u t   f o r   t i m e  s t e p   14202                              ( at time 7.0997895E+00 )

 nodal point  x-rot      y-rot       z-rot       x-rot vel   y-rot vel   z-rot vel   x-rot acc   y-rot acc   z-rot acc
    22626  3.47162E-03 6.82396E-03-9.41329E-04 3.84628E-03 6.44175E-03-1.56069E-03 2.45315E-03 2.89614E-03-1.10237E-03



 n o d a l   p r i n t   o u t   f o r   t i m e  s t e p   14402                              ( at time 7.1997794E+00 )

 nodal point  x-disp     y-disp      z-disp      x-vel       y-vel       z-vel      x-accl      y-accl      z-accl      x-coor      y-coor      z-coor
    22626  1.16360E-01 6.60754E-02-2.17782E+01 1.45412E-01 1.24343E-01-2.23963E+00 8.18077E-02 5.13798E-02 5.46670E-01 4.80805E+01-2.19637E+01-1.44397E+01



 n o d a l   p r i n t   o u t   f o r   t i m e  s t e p   14402                              ( at time 7.1997794E+00 )

 nodal point  x-rot      y-rot       z-rot       x-rot vel   y-rot vel   z-rot vel   x-rot acc   y-rot acc   z-rot acc
    22626  3.86879E-03 7.48122E-03-1.10273E-03 4.09297E-03 6.70505E-03-1.66976E-03 2.46712E-03 2.63329E-03-1.09083E-03



 n o d a l   p r i n t   o u t   f o r   t i m e  s t e p   14602                              ( at time 7.2997694E+00 )

 nodal point  x-disp     y-disp      z-disp      x-vel       y-vel       z-vel      x-accl      y-accl      z-accl      x-coor      y-coor      z-coor
    22626  1.31310E-01 7.87590E-02-2.19992E+01 1.53178E-01 1.29381E-01-2.18157E+00 7.76636E-02 5.03815E-02 5.80670E-01 4.80955E+01-2.19510E+01-1.46607E+01



 n o d a l   p r i n t   o u t   f o r   t i m e  s t e p   14602                              ( at time 7.2997694E+00 )

 nodal point  x-rot      y-rot       z-rot       x-rot vel   y-rot vel   z-rot vel   x-rot acc   y-rot acc   z-rot acc
    22626  4.29140E-03 8.16749E-03-1.27576E-03 4.35747E-03 7.01428E-03-1.78549E-03 2.64530E-03 3.09260E-03-1.15741E-03



 n o d a l   p r i n t   o u t   f o r   t i m e  s t e p   14802                              ( at time 7.3997594E+00 )

 nodal point  x-disp     y-disp      z-disp      x-vel       y-vel       z-vel      x-accl      y-accl      z-accl      x-coor      y-coor      z-coor
    22626  1.46994E-01 9.19108E-02-2.22144E+01 1.59787E-01 1.33220E-01-2.12214E+00 6.61015E-02 3.83987E-02 5.94364E-01 4.81112E+01-2.19379E+01-1.48759E+01



 n o d a l   p r i n t   o u t   f o r   t i m e  s t e p   14802                              ( at time 7.3997594E+00 )

 nodal point  x-rot      y-rot       z-rot       x-rot vel   y-rot vel   z-rot vel   x-rot acc   y-rot acc   z-rot acc
    22626  4.74011E-03 8.88260E-03-1.45876E-03 4.62021E-03 7.29424E-03-1.87475E-03 2.62764E-03 2.79989E-03-8.92655E-04



 n o d a l   p r i n t   o u t   f o r   t i m e  s t e p   15002                              ( at time 7.4997494E+00 )

 nodal point  x-disp     y-disp      z-disp      x-vel       y-vel       z-vel      x-accl      y-accl      z-accl      x-coor      y-coor      z-coor
    22626  1.63224E-01 1.05320E-01-2.24234E+01 1.65079E-01 1.35540E-01-2.05744E+00 5.29239E-02 2.32023E-02 6.47064E-01 4.81274E+01-2.19245E+01-1.50849E+01



 n o d a l   p r i n t   o u t   f o r   t i m e  s t e p   15002                              ( at time 7.4997494E+00 )

 nodal point  x-rot      y-rot       z-rot       x-rot vel   y-rot vel   z-rot vel   x-rot acc   y-rot acc   z-rot acc
    22626  5.21673E-03 9.62652E-03-1.65076E-03 4.93101E-03 7.59258E-03-1.95639E-03 3.10832E-03 2.98370E-03-8.16552E-04



 n o d a l   p r i n t   o u t   f o r   t i m e  s t e p   15202                              ( at time 7.5997394E+00 )

 nodal point  x-disp     y-disp      z-disp      x-vel       y-vel       z-vel      x-accl      y-accl      z-accl      x-coor      y-coor      z-coor
    22626  1.80017E-01 1.19025E-01-2.26258E+01 1.71466E-01 1.37060E-01-1.99150E+00 6.38705E-02 1.52027E-02 6.59386E-01 4.81442E+01-2.19108E+01-1.52873E+01



 n o d a l   p r i n t   o u t   f o r   t i m e  s t e p   15202                              ( at time 7.5997394E+00 )

 nodal point  x-rot      y-rot       z-rot       x-rot vel   y-rot vel   z-rot vel   x-rot acc   y-rot acc   z-rot acc
    22626  5.72422E-03 1.03994E-02-1.85316E-03 5.21298E-03 7.86924E-03-2.06662E-03 2.81994E-03 2.76692E-03-1.10242E-03



 n o d a l   p r i n t   o u t   f o r   t i m e  s t e p   15402                              ( at time 7.6997294E+00 )

 nodal point  x-disp     y-disp      z-disp      x-vel       y-vel       z-vel      x-accl      y-accl      z-accl      x-coor      y-coor      z-coor
    22626  1.97453E-01 1.32661E-01-2.28215E+01 1.78133E-01 1.35500E-01-1.92223E+00 6.66777E-02-1.56068E-02 6.92802E-01 4.81616E+01-2.18971E+01-1.54830E+01



 n o d a l   p r i n t   o u t   f o r   t i m e  s t e p   15402                              ( at time 7.6997294E+00 )

 nodal point  x-rot      y-rot       z-rot       x-rot vel   y-rot vel   z-rot vel   x-rot acc   y-rot acc   z-rot acc
    22626  6.26073E-03 1.11976E-02-2.06469E-03 5.51008E-03 8.10491E-03-2.14321E-03 2.97135E-03 2.35686E-03-7.65955E-04



 n o d a l   p r i n t   o u t   f o r   t i m e  s t e p   15602                              ( at time 7.7997194E+00 )

 nodal point  x-disp     y-disp      z-disp      x-vel       y-vel       z-vel      x-accl      y-accl      z-accl      x-coor      y-coor      z-coor
    22626  2.15608E-01 1.46264E-01-2.30102E+01 1.84262E-01 1.35768E-01-1.85250E+00 6.12972E-02 2.68501E-03 6.97371E-01 4.81798E+01-2.18835E+01-1.56717E+01



 n o d a l   p r i n t   o u t   f o r   t i m e  s t e p   15602                              ( at time 7.7997194E+00 )

 nodal point  x-rot      y-rot       z-rot       x-rot vel   y-rot vel   z-rot vel   x-rot acc   y-rot acc   z-rot acc
    22626  6.82752E-03 1.20201E-02-2.28390E-03 5.82868E-03 8.35034E-03-2.22617E-03 3.18629E-03 2.45464E-03-8.29669E-04



 n o d a l   p r i n t   o u t   f o r   t i m e  s t e p   15802                              ( at time 7.8997094E+00 )

 nodal point  x-disp     y-disp      z-disp      x-vel       y-vel       z-vel      x-accl      y-accl      z-accl      x-coor      y-coor      z-coor
    22626  2.34252E-01 1.59727E-01-2.31918E+01 1.88784E-01 1.33833E-01-1.78026E+00 4.52318E-02-1.93538E-02 7.22466E-01 4.81984E+01-2.18701E+01-1.58533E+01



 n o d a l   p r i n t   o u t   f o r   t i m e  s t e p   15802                              ( at time 7.8997094E+00 )

 nodal point  x-rot      y-rot       z-rot       x-rot vel   y-rot vel   z-rot vel   x-rot acc   y-rot acc   z-rot acc
    22626  7.42845E-03 1.28676E-02-2.51132E-03 6.19123E-03 8.59320E-03-2.32728E-03 3.62591E-03 2.42879E-03-1.01121E-03



 n o d a l   p r i n t   o u t   f o r   t i m e  s t e p   16002                              ( at time 7.9996994E+00 )

 nodal point  x-disp     y-disp      z-disp      x-vel       y-vel       z-vel      x-accl      y-accl      z-accl      x-coor      y-coor      z-coor
    22626  2.53470E-01 1.72939E-01-2.33663E+01 1.95123E-01 1.30501E-01-1.70828E+00 6.33967E-02-3.33262E-02 7.19848E-01 4.82177E+01-2.18569E+01-1.60278E+01



 n o d a l   p r i n t   o u t   f o r   t i m e  s t e p   16002                              ( at time 7.9996994E+00 )

 nodal point  x-rot      y-rot       z-rot       x-rot vel   y-rot vel   z-rot vel   x-rot acc   y-rot acc   z-rot acc
    22626  8.06119E-03 1.37368E-02-2.74740E-03 6.47049E-03 8.79242E-03-2.39009E-03 2.79281E-03 1.99237E-03-6.28109E-04



 n o d a l   p r i n t   o u t   f o r   t i m e  s t e p   16202                              ( at time 8.0996894E+00 )

 nodal point  x-disp     y-disp      z-disp      x-vel       y-vel       z-vel      x-accl      y-accl      z-accl      x-coor      y-coor      z-coor
    22626  2.73224E-01 1.85793E-01-2.35334E+01 2.00345E-01 1.26014E-01-1.63510E+00 5.22197E-02-4.48707E-02 7.31889E-01 4.82374E+01-2.18440E+01-1.61949E+01



 n o d a l   p r i n t   o u t   f o r   t i m e  s t e p   16202                              ( at time 8.0996894E+00 )

 nodal point  x-rot      y-rot       z-rot       x-rot vel   y-rot vel   z-rot vel   x-rot acc   y-rot acc   z-rot acc
    22626  8.72655E-03 1.46271E-02-2.98986E-03 6.84661E-03 9.00590E-03-2.45063E-03 3.76164E-03 2.13502E-03-6.05484E-04



 n o d a l   p r i n t   o u t   f o r   t i m e  s t e p   16402                              ( at time 8.1996794E+00 )

 nodal point  x-disp     y-disp      z-disp      x-vel       y-vel       z-vel      x-accl      y-accl      z-accl      x-coor      y-coor      z-coor
    22626  2.93470E-01 1.98266E-01-2.36931E+01 2.05263E-01 1.23479E-01-1.56033E+00 4.91839E-02-2.53596E-02 7.47759E-01 4.82576E+01-2.18315E+01-1.63546E+01



 n o d a l   p r i n t   o u t   f o r   t i m e  s t e p   16402                              ( at time 8.1996794E+00 )

 nodal point  x-rot      y-rot       z-rot       x-rot vel   y-rot vel   z-rot vel   x-rot acc   y-rot acc   z-rot acc
    22626  9.42911E-03 1.55365E-02-3.23945E-03 7.19211E-03 9.18688E-03-2.54077E-03 3.45537E-03 1.80998E-03-9.01521E-04



 n o d a l   p r i n t   o u t   f o r   t i m e  s t e p   16602                              ( at time 8.2996694E+00 )

 nodal point  x-disp     y-disp      z-disp      x-vel       y-vel       z-vel      x-accl      y-accl      z-accl      x-coor      y-coor      z-coor
    22626  3.14162E-01 2.10203E-01-2.38453E+01 2.09387E-01 1.15427E-01-1.48461E+00 4.12416E-02-8.05223E-02 7.57306E-01 4.82783E+01-2.18196E+01-1.65068E+01



 n o d a l   p r i n t   o u t   f o r   t i m e  s t e p   16602                              ( at time 8.2996694E+00 )

 nodal point  x-rot      y-rot       z-rot       x-rot vel   y-rot vel   z-rot vel   x-rot acc   y-rot acc   z-rot acc
    22626  1.01659E-02 1.64638E-02-3.49644E-03 7.55792E-03 9.33459E-03-2.60131E-03 3.65839E-03 1.47726E-03-6.05442E-04



 n o d a l   p r i n t   o u t   f o r   t i m e  s t e p   16802                              ( at time 8.3996594E+00 )

 nodal point  x-disp     y-disp      z-disp      x-vel       y-vel       z-vel      x-accl      y-accl      z-accl      x-coor      y-coor      z-coor
    22626  3.35482E-01 2.21411E-01-2.39899E+01 2.16525E-01 1.10197E-01-1.40838E+00 7.13960E-02-5.23063E-02 7.62415E-01 4.82997E+01-2.18084E+01-1.66514E+01



 n o d a l   p r i n t   o u t   f o r   t i m e  s t e p   16802                              ( at time 8.3996594E+00 )

 nodal point  x-rot      y-rot       z-rot       x-rot vel   y-rot vel   z-rot vel   x-rot acc   y-rot acc   z-rot acc
    22626  1.09390E-02 1.74038E-02-3.75943E-03 7.91952E-03 9.45825E-03-2.66950E-03 3.61638E-03 1.23676E-03-6.81955E-04



 n o d a l   p r i n t   o u t   f o r   t i m e  s t e p   17002                              ( at time 8.4996494E+00 )

 nodal point  x-disp     y-disp      z-disp      x-vel       y-vel       z-vel      x-accl      y-accl      z-accl      x-coor      y-coor      z-coor
    22626  3.57345E-01 2.31993E-01-2.41269E+01 2.20433E-01 1.01946E-01-1.33007E+00 3.90819E-02-8.25205E-02 7.83165E-01 4.83215E+01-2.17978E+01-1.67884E+01



 n o d a l   p r i n t   o u t   f o r   t i m e  s t e p   17002                              ( at time 8.4996494E+00 )

 nodal point  x-rot      y-rot       z-rot       x-rot vel   y-rot vel   z-rot vel   x-rot acc   y-rot acc   z-rot acc
    22626  1.17496E-02 1.83562E-02-4.02992E-03 8.30645E-03 9.59465E-03-2.72533E-03 3.86973E-03 1.36414E-03-5.58352E-04



 n o d a l   p r i n t   o u t   f o r   t i m e  s t e p   17202                              ( at time 8.5996394E+00 )

 nodal point  x-disp     y-disp      z-disp      x-vel       y-vel       z-vel      x-accl      y-accl      z-accl      x-coor      y-coor      z-coor
    22626  3.79763E-01 2.41825E-01-2.42560E+01 2.28118E-01 9.45420E-02-1.25190E+00 7.68604E-02-7.40464E-02 7.81751E-01 4.83439E+01-2.17880E+01-1.69175E+01



 n o d a l   p r i n t   o u t   f o r   t i m e  s t e p   17202                              ( at time 8.5996394E+00 )

 nodal point  x-rot      y-rot       z-rot       x-rot vel   y-rot vel   z-rot vel   x-rot acc   y-rot acc   z-rot acc
    22626  1.26011E-02 1.93183E-02-4.30575E-03 8.71479E-03 9.64081E-03-2.77402E-03 4.08382E-03 4.61638E-04-4.86949E-04



 n o d a l   p r i n t   o u t   f o r   t i m e  s t e p   17402                              ( at time 8.6996293E+00 )

 nodal point  x-disp     y-disp      z-disp      x-vel       y-vel       z-vel      x-accl      y-accl      z-accl      x-coor      y-coor      z-coor
    22626  4.02892E-01 2.50982E-01-2.43773E+01 2.33753E-01 8.87451E-02-1.17619E+00 5.63543E-02-5.79737E-02 7.57224E-01 4.83671E+01-2.17788E+01-1.70388E+01



 n o d a l   p r i n t   o u t   f o r   t i m e  s t e p   17402                              ( at time 8.6996293E+00 )

 nodal point  x-rot      y-rot       z-rot       x-rot vel   y-rot vel   z-rot vel   x-rot acc   y-rot acc   z-rot acc
    22626  1.34917E-02 2.02895E-02-4.58778E-03 9.09595E-03 9.78417E-03-2.87212E-03 3.81195E-03 1.43371E-03-9.81119E-04



 n o d a l   p r i n t   o u t   f o r   t i m e  s t e p   17602                              ( at time 8.7996193E+00 )

 nodal point  x-disp     y-disp      z-disp      x-vel       y-vel       z-vel      x-accl      y-accl      z-accl      x-coor      y-coor      z-coor
    22626  4.26623E-01 2.59431E-01-2.44913E+01 2.40799E-01 8.21038E-02-1.10234E+00 7.04613E-02-6.64195E-02 7.38527E-01 4.83908E+01-2.17704E+01-1.71528E+01



 n o d a l   p r i n t   o u t   f o r   t i m e  s t e p   17602                              ( at time 8.7996193E+00 )

 nodal point  x-rot      y-rot       z-rot       x-rot vel   y-rot vel   z-rot vel   x-rot acc   y-rot acc   z-rot acc
    22626  1.44184E-02 2.12719E-02-4.87471E-03 9.47319E-03 9.83727E-03-2.89674E-03 3.77275E-03 5.31066E-04-2.46229E-04



 n o d a l   p r i n t   o u t   f o r   t i m e  s t e p   17802                              ( at time 8.8996093E+00 )

 nodal point  x-disp     y-disp      z-disp      x-vel       y-vel       z-vel      x-accl      y-accl      z-accl      x-coor      y-coor      z-coor
    22626  4.51125E-01 2.67466E-01-2.45977E+01 2.50640E-01 7.83913E-02-1.02801E+00 9.84256E-02-3.71294E-02 7.43382E-01 4.84153E+01-2.17623E+01-1.72592E+01



 n o d a l   p r i n t   o u t   f o r   t i m e  s t e p   17802                              ( at time 8.8996093E+00 )

 nodal point  x-rot      y-rot       z-rot       x-rot vel   y-rot vel   z-rot vel   x-rot acc   y-rot acc   z-rot acc
    22626  1.53892E-02 2.22586E-02-5.16641E-03 9.91126E-03 9.88881E-03-2.94906E-03 4.38110E-03 5.15455E-04-5.23214E-04



 n o d a l   p r i n t   o u t   f o r   t i m e  s t e p   18002                              ( at time 8.9995993E+00 )

 nodal point  x-disp     y-disp      z-disp      x-vel       y-vel       z-vel      x-accl      y-accl      z-accl      x-coor      y-coor      z-coor
    22626  4.76516E-01 2.74868E-01-2.46967E+01 2.57168E-01 7.07941E-02-9.53266E-01 6.52823E-02-7.59798E-02 7.47520E-01 4.84407E+01-2.17549E+01-1.73582E+01



 n o d a l   p r i n t   o u t   f o r   t i m e  s t e p   18002                              ( at time 8.9995993E+00 )

 nodal point  x-rot      y-rot       z-rot       x-rot vel   y-rot vel   z-rot vel   x-rot acc   y-rot acc   z-rot acc
    22626  1.63977E-02 2.32531E-02-5.46320E-03 1.02728E-02 9.99472E-03-2.97855E-03 3.61606E-03 1.05924E-03-2.94998E-04



 n o d a l   p r i n t   o u t   f o r   t i m e  s t e p   18202                              ( at time 9.0995893E+00 )

 nodal point  x-disp     y-disp      z-disp      x-vel       y-vel       z-vel      x-accl      y-accl      z-accl      x-coor      y-coor      z-coor
    22626  5.02517E-01 2.81841E-01-2.47888E+01 2.62866E-01 6.78609E-02-8.89340E-01 5.69899E-02-2.93351E-02 6.39320E-01 4.84667E+01-2.17479E+01-1.74503E+01



 n o d a l   p r i n t   o u t   f o r   t i m e  s t e p   18202                              ( at time 9.0995893E+00 )

 nodal point  x-rot      y-rot       z-rot       x-rot vel   y-rot vel   z-rot vel   x-rot acc   y-rot acc   z-rot acc
    22626  1.74472E-02 2.42564E-02-5.76289E-03 1.06841E-02 1.00932E-02-3.01378E-03 4.11343E-03 9.84927E-04-3.52325E-04



 n o d a l   p r i n t   o u t   f o r   t i m e  s t e p   18402                              ( at time 9.1995793E+00 )

 nodal point  x-disp     y-disp      z-disp      x-vel       y-vel       z-vel      x-accl      y-accl      z-accl      x-coor      y-coor      z-coor
    22626  5.29194E-01 2.88541E-01-2.48740E+01 2.72516E-01 6.50292E-02-8.16904E-01 9.65067E-02-2.83195E-02 7.24436E-01 4.84934E+01-2.17412E+01-1.75355E+01



 n o d a l   p r i n t   o u t   f o r   t i m e  s t e p   18402                              ( at time 9.1995793E+00 )

 nodal point  x-rot      y-rot       z-rot       x-rot vel   y-rot vel   z-rot vel   x-rot acc   y-rot acc   z-rot acc
    22626  1.85356E-02 2.52674E-02-6.06748E-03 1.11048E-02 1.01286E-02-3.06030E-03 4.20760E-03 3.54292E-04-4.65182E-04



 n o d a l   p r i n t   o u t   f o r   t i m e  s t e p   18602                              ( at time 9.2995693E+00 )

 nodal point  x-disp     y-disp      z-disp      x-vel       y-vel       z-vel      x-accl      y-accl      z-accl      x-coor      y-coor      z-coor
    22626  5.56919E-01 2.94916E-01-2.49525E+01 2.80631E-01 6.20678E-02-7.50029E-01 8.11587E-02-2.96169E-02 6.68815E-01 4.85211E+01-2.17349E+01-1.76140E+01



 n o d a l   p r i n t   o u t   f o r   t i m e  s t e p   18602                              ( at time 9.2995693E+00 )

 nodal point  x-rot      y-rot       z-rot       x-rot vel   y-rot vel   z-rot vel   x-rot acc   y-rot acc   z-rot acc
    22626  1.96643E-02 2.62818E-02-6.37501E-03 1.14795E-02 1.01932E-02-3.08946E-03 3.74717E-03 6.45882E-04-2.91636E-04



 n o d a l   p r i n t   o u t   f o r   t i m e  s t e p   18802                              ( at time 9.3995593E+00 )

 nodal point  x-disp     y-disp      z-disp      x-vel       y-vel       z-vel      x-accl      y-accl      z-accl      x-coor      y-coor      z-coor
    22626  5.85282E-01 3.01061E-01-2.50240E+01 2.87796E-01 6.13965E-02-6.84094E-01 7.16556E-02-6.71347E-03 6.59413E-01 4.85495E+01-2.17287E+01-1.76855E+01



 n o d a l   p r i n t   o u t   f o r   t i m e  s t e p   18802                              ( at time 9.3995593E+00 )

 nodal point  x-rot      y-rot       z-rot       x-rot vel   y-rot vel   z-rot vel   x-rot acc   y-rot acc   z-rot acc
    22626  2.08335E-02 2.73017E-02-6.68638E-03 1.19143E-02 1.02370E-02-3.14841E-03 4.34816E-03 4.37673E-04-5.89552E-04



 n o d a l   p r i n t   o u t   f o r   t i m e  s t e p   19002                              ( at time 9.4995493E+00 )

 nodal point  x-disp     y-disp      z-disp      x-vel       y-vel       z-vel      x-accl      y-accl      z-accl      x-coor      y-coor      z-coor
    22626  6.14516E-01 3.07226E-01-2.50891E+01 2.95897E-01 6.05996E-02-6.19139E-01 8.10231E-02-7.97010E-03 6.49624E-01 4.85787E+01-2.17226E+01-1.77506E+01



 n o d a l   p r i n t   o u t   f o r   t i m e  s t e p   19002                              ( at time 9.4995493E+00 )

 nodal point  x-rot      y-rot       z-rot       x-rot vel   y-rot vel   z-rot vel   x-rot acc   y-rot acc   z-rot acc
    22626  2.20444E-02 2.83311E-02-7.00309E-03 1.22787E-02 1.02870E-02-3.17335E-03 3.64431E-03 5.00338E-04-2.49503E-04



 n o d a l   p r i n t   o u t   f o r   t i m e  s t e p   19202                              ( at time 9.5995393E+00 )

 nodal point  x-disp     y-disp      z-disp      x-vel       y-vel       z-vel      x-accl      y-accl      z-accl      x-coor      y-coor      z-coor
    22626  6.44614E-01 3.13208E-01-2.51477E+01 3.04595E-01 6.01868E-02-5.53456E-01 8.69875E-02-4.12837E-03 6.56886E-01 4.86088E+01-2.17166E+01-1.78092E+01



 n o d a l   p r i n t   o u t   f o r   t i m e  s t e p   19202                              ( at time 9.5995393E+00 )

 nodal point  x-rot      y-rot       z-rot       x-rot vel   y-rot vel   z-rot vel   x-rot acc   y-rot acc   z-rot acc
    22626  2.32915E-02 2.93637E-02-7.32158E-03 1.26698E-02 1.03688E-02-3.21186E-03 3.91168E-03 8.18242E-04-3.85058E-04



 n o d a l   p r i n t   o u t   f o r   t i m e  s t e p   19402                              ( at time 9.6995293E+00 )

 nodal point  x-disp     y-disp      z-disp      x-vel       y-vel       z-vel      x-accl      y-accl      z-accl      x-coor      y-coor      z-coor
    22626  6.75342E-01 3.19154E-01-2.51999E+01 3.11216E-01 6.24120E-02-4.87627E-01 6.62131E-02 2.22546E-02 6.58352E-01 4.86395E+01-2.17106E+01-1.78614E+01



 n o d a l   p r i n t   o u t   f o r   t i m e  s t e p   19402                              ( at time 9.6995293E+00 )

 nodal point  x-rot      y-rot       z-rot       x-rot vel   y-rot vel   z-rot vel   x-rot acc   y-rot acc   z-rot acc
    22626  2.45783E-02 3.03999E-02-7.64277E-03 1.30776E-02 1.03725E-02-3.25136E-03 4.07788E-03 3.66606E-05-3.95051E-04



 n o d a l   p r i n t   o u t   f o r   t i m e  s t e p   19602                              ( at time 9.7995193E+00 )

 nodal point  x-disp     y-disp      z-disp      x-vel       y-vel       z-vel      x-accl      y-accl      z-accl      x-coor      y-coor      z-coor
    22626  7.06879E-01 3.25399E-01-2.52458E+01 3.21557E-01 5.94050E-02-4.28203E-01 1.03415E-01-3.00736E-02 5.94300E-01 4.86711E+01-2.17044E+01-1.79072E+01



 n o d a l   p r i n t   o u t   f o r   t i m e  s t e p   19602                              ( at time 9.7995193E+00 )

 nodal point  x-rot      y-rot       z-rot       x-rot vel   y-rot vel   z-rot vel   x-rot acc   y-rot acc   z-rot acc
    22626  2.59088E-02 3.14392E-02-7.97179E-03 1.34738E-02 1.04317E-02-3.28334E-03 3.96315E-03 5.91887E-04-3.19837E-04



 n o d a l   p r i n t   o u t   f o r   t i m e  s t e p   19802                              ( at time 9.8995093E+00 )

 nodal point  x-disp     y-disp      z-disp      x-vel       y-vel       z-vel      x-accl      y-accl      z-accl      x-coor      y-coor      z-coor
    22626  7.39276E-01 3.31393E-01-2.52852E+01 3.27956E-01 6.08474E-02-3.62695E-01 6.39998E-02 1.44261E-02 6.55150E-01 4.87035E+01-2.16984E+01-1.79467E+01



 n o d a l   p r i n t   o u t   f o r   t i m e  s t e p   19802                              ( at time 9.8995093E+00 )

 nodal point  x-rot      y-rot       z-rot       x-rot vel   y-rot vel   z-rot vel   x-rot acc   y-rot acc   z-rot acc
    22626  2.72745E-02 3.24816E-02-8.30280E-03 1.38377E-02 1.04308E-02-3.31873E-03 3.63942E-03-9.20240E-06-3.53955E-04



 n o d a l   p r i n t   o u t   f o r   t i m e  s t e p   20003                              ( at time 9.9999992E+00 )

 nodal point  x-disp     y-disp      z-disp      x-vel       y-vel       z-vel      x-accl      y-accl      z-accl      x-coor      y-coor      z-coor
[...]
    22626  2.61335E-01 1.54237E-01-7.08677E-02 1.89274E-02 8.80782E-03-6.23134E-03-2.59993E-04-6.09886E-05 3.98652E-04



 n o d a l   p r i n t   o u t   f o r   t i m e  s t e p   45205                              ( at time 2.2599738E+01 )

 nodal point  x-disp     y-disp      z-disp      x-vel       y-vel       z-vel      x-accl      y-accl      z-accl      x-coor      y-coor      z-coor
    22626  4.65062E+00 9.24784E-01-1.95050E+01 2.55016E-01-2.28099E-02 5.34191E-01 2.17973E-02-4.49051E-02-3.20190E-02 5.26148E+01-2.11050E+01-1.21665E+01



 n o d a l   p r i n t   o u t   f o r   t i m e  s t e p   45205                              ( at time 2.2599738E+01 )

 nodal point  x-rot      y-rot       z-rot       x-rot vel   y-rot vel   z-rot vel   x-rot acc   y-rot acc   z-rot acc
    22626  2.63225E-01 1.55116E-01-7.14886E-02 1.88770E-02 8.78636E-03-6.18661E-03-5.04823E-04-2.14568E-04 4.47346E-04



 n o d a l   p r i n t   o u t   f o r   t i m e  s t e p   45405                              ( at time 2.2699728E+01 )

 nodal point  x-disp     y-disp      z-disp      x-vel       y-vel       z-vel      x-accl      y-accl      z-accl      x-coor      y-coor      z-coor
    22626  4.67623E+00 9.22255E-01-1.94518E+01 2.57227E-01-2.76430E-02 5.29387E-01 2.21074E-02-4.83356E-02-4.80479E-02 5.26404E+01-2.11075E+01-1.21133E+01



 n o d a l   p r i n t   o u t   f o r   t i m e  s t e p   45405                              ( at time 2.2699728E+01 )

 nodal point  x-rot      y-rot       z-rot       x-rot vel   y-rot vel   z-rot vel   x-rot acc   y-rot acc   z-rot acc
    22626  2.65110E-01 1.55993E-01-7.21048E-02 1.88276E-02 8.75913E-03-6.14185E-03-4.93693E-04-2.72321E-04 4.47634E-04



 n o d a l   p r i n t   o u t   f o r   t i m e  s t e p   45605                              ( at time 2.2799718E+01 )

 nodal point  x-disp     y-disp      z-disp      x-vel       y-vel       z-vel      x-accl      y-accl      z-accl      x-coor      y-coor      z-coor
    22626  4.70209E+00 9.19239E-01-1.93991E+01 2.59925E-01-3.27985E-02 5.24874E-01 2.69894E-02-5.15604E-02-4.51332E-02 5.26663E+01-2.11106E+01-1.20606E+01



 n o d a l   p r i n t   o u t   f o r   t i m e  s t e p   45605                              ( at time 2.2799718E+01 )

 nodal point  x-rot      y-rot       z-rot       x-rot vel   y-rot vel   z-rot vel   x-rot acc   y-rot acc   z-rot acc
    22626  2.66989E-01 1.56868E-01-7.27162E-02 1.87682E-02 8.73020E-03-6.08723E-03-5.93903E-04-2.89333E-04 5.46187E-04



 n o d a l   p r i n t   o u t   f o r   t i m e  s t e p   45805                              ( at time 2.2899708E+01 )

 nodal point  x-disp     y-disp      z-disp      x-vel       y-vel       z-vel      x-accl      y-accl      z-accl      x-coor      y-coor      z-coor
    22626  4.72820E+00 9.15683E-01-1.93469E+01 2.62536E-01-3.84392E-02 5.18573E-01 2.61106E-02-5.64133E-02-6.30180E-02 5.26924E+01-2.11141E+01-1.20084E+01



 n o d a l   p r i n t   o u t   f o r   t i m e  s t e p   45805                              ( at time 2.2899708E+01 )

 nodal point  x-rot      y-rot       z-rot       x-rot vel   y-rot vel   z-rot vel   x-rot acc   y-rot acc   z-rot acc
    22626  2.68863E-01 1.57739E-01-7.33226E-02 1.86976E-02 8.68774E-03-6.03742E-03-7.06114E-04-4.24665E-04 4.98150E-04



 n o d a l   p r i n t   o u t   f o r   t i m e  s t e p   46005                              ( at time 2.2999698E+01 )

 nodal point  x-disp     y-disp      z-disp      x-vel       y-vel       z-vel      x-accl      y-accl      z-accl      x-coor      y-coor      z-coor
    22626  4.75457E+00 9.11559E-01-1.92954E+01 2.65312E-01-4.39764E-02 5.12261E-01 2.77577E-02-5.53771E-02-6.31259E-02 5.27188E+01-2.11182E+01-1.19569E+01



 n o d a l   p r i n t   o u t   f o r   t i m e  s t e p   46005                              ( at time 2.2999698E+01 )

 nodal point  x-rot      y-rot       z-rot       x-rot vel   y-rot vel   z-rot vel   x-rot acc   y-rot acc   z-rot acc
    22626  2.70729E-01 1.58605E-01-7.39237E-02 1.86251E-02 8.63917E-03-5.98547E-03-7.25287E-04-4.85776E-04 5.19572E-04



 n o d a l   p r i n t   o u t   f o r   t i m e  s t e p   46205                              ( at time 2.3099688E+01 )

 nodal point  x-disp     y-disp      z-disp      x-vel       y-vel       z-vel      x-accl      y-accl      z-accl      x-coor      y-coor      z-coor
    22626  4.78123E+00 9.06879E-01-1.92445E+01 2.67983E-01-4.96830E-02 5.05240E-01 2.67130E-02-5.70719E-02-7.02101E-02 5.27454E+01-2.11229E+01-1.19060E+01



 n o d a l   p r i n t   o u t   f o r   t i m e  s t e p   46205                              ( at time 2.3099688E+01 )

 nodal point  x-rot      y-rot       z-rot       x-rot vel   y-rot vel   z-rot vel   x-rot acc   y-rot acc   z-rot acc
    22626  2.72587E-01 1.59467E-01-7.45193E-02 1.85570E-02 8.58956E-03-5.92790E-03-6.81245E-04-4.96115E-04 5.75789E-04



 n o d a l   p r i n t   o u t   f o r   t i m e  s t e p   46405                              ( at time 2.3199678E+01 )

 nodal point  x-disp     y-disp      z-disp      x-vel       y-vel       z-vel      x-accl      y-accl      z-accl      x-coor      y-coor      z-coor
    22626  4.80819E+00 9.01639E-01-1.91944E+01 2.71042E-01-5.53276E-02 4.97893E-01 3.05949E-02-5.64510E-02-7.34790E-02 5.27724E+01-2.11282E+01-1.18559E+01



 n o d a l   p r i n t   o u t   f o r   t i m e  s t e p   46405                              ( at time 2.3199678E+01 )

 nodal point  x-rot      y-rot       z-rot       x-rot vel   y-rot vel   z-rot vel   x-rot acc   y-rot acc   z-rot acc
    22626  2.74439E-01 1.60323E-01-7.51094E-02 1.84792E-02 8.53448E-03-5.87750E-03-7.78154E-04-5.50881E-04 5.04045E-04



 n o d a l   p r i n t   o u t   f o r   t i m e  s t e p   46605                              ( at time 2.3299668E+01 )

 nodal point  x-disp     y-disp      z-disp      x-vel       y-vel       z-vel      x-accl      y-accl      z-accl      x-coor      y-coor      z-coor
    22626  4.83542E+00 8.95815E-01-1.91450E+01 2.73658E-01-6.09985E-02 4.90026E-01 2.61702E-02-5.67154E-02-7.86788E-02 5.27996E+01-2.11340E+01-1.18065E+01



 n o d a l   p r i n t   o u t   f o r   t i m e  s t e p   46605                              ( at time 2.3299668E+01 )

 nodal point  x-rot      y-rot       z-rot       x-rot vel   y-rot vel   z-rot vel   x-rot acc   y-rot acc   z-rot acc
    22626  2.76283E-01 1.61173E-01-7.56945E-02 1.84059E-02 8.47416E-03-5.82567E-03-7.32250E-04-6.03266E-04 5.18315E-04



 n o d a l   p r i n t   o u t   f o r   t i m e  s t e p   46805                              ( at time 2.3399658E+01 )

 nodal point  x-disp     y-disp      z-disp      x-vel       y-vel       z-vel      x-accl      y-accl      z-accl      x-coor      y-coor      z-coor
    22626  4.86292E+00 8.89473E-01-1.90964E+01 2.76329E-01-6.59937E-02 4.82497E-01 2.67083E-02-4.99564E-02-7.52980E-02 5.28271E+01-2.11403E+01-1.17579E+01



 n o d a l   p r i n t   o u t   f o r   t i m e  s t e p   46805                              ( at time 2.3399658E+01 )

 nodal point  x-rot      y-rot       z-rot       x-rot vel   y-rot vel   z-rot vel   x-rot acc   y-rot acc   z-rot acc
    22626  2.78120E-01 1.62017E-01-7.62744E-02 1.83369E-02 8.42064E-03-5.77179E-03-6.90993E-04-5.35299E-04 5.38857E-04



 n o d a l   p r i n t   o u t   f o r   t i m e  s t e p   47005                              ( at time 2.3499648E+01 )

 nodal point  x-disp     y-disp      z-disp      x-vel       y-vel       z-vel      x-accl      y-accl      z-accl      x-coor      y-coor      z-coor
    22626  4.89068E+00 8.82647E-01-1.90485E+01 2.79140E-01-7.04724E-02 4.74996E-01 2.81115E-02-4.47911E-02-7.50181E-02 5.28549E+01-2.11471E+01-1.17100E+01



 n o d a l   p r i n t   o u t   f o r   t i m e  s t e p   47005                              ( at time 2.3499648E+01 )

 nodal point  x-rot      y-rot       z-rot       x-rot vel   y-rot vel   z-rot vel   x-rot acc   y-rot acc   z-rot acc
    22626  2.79950E-01 1.62857E-01-7.68496E-02 1.82696E-02 8.36590E-03-5.73110E-03-6.72812E-04-5.47398E-04 4.06923E-04



 n o d a l   p r i n t   o u t   f o r   t i m e  s t e p   47205                              ( at time 2.3599638E+01 )

 nodal point  x-disp     y-disp      z-disp      x-vel       y-vel       z-vel      x-accl      y-accl      z-accl      x-coor      y-coor      z-coor
    22626  4.91871E+00 8.75369E-01-1.90014E+01 2.81330E-01-7.48075E-02 4.67369E-01 2.19065E-02-4.33563E-02-7.62762E-02 5.28829E+01-2.11544E+01-1.16629E+01



 n o d a l   p r i n t   o u t   f o r   t i m e  s t e p   47205                              ( at time 2.3599638E+01 )

 nodal point  x-rot      y-rot       z-rot       x-rot vel   y-rot vel   z-rot vel   x-rot acc   y-rot acc   z-rot acc
    22626  2.81773E-01 1.63690E-01-7.74202E-02 1.82006E-02 8.30375E-03-5.68769E-03-6.89534E-04-6.21522E-04 4.34231E-04



 n o d a l   p r i n t   o u t   f o r   t i m e  s t e p   47405                              ( at time 2.3699628E+01 )

 nodal point  x-disp     y-disp      z-disp      x-vel       y-vel       z-vel      x-accl      y-accl      z-accl      x-coor      y-coor      z-coor
    22626  4.94695E+00 8.67718E-01-1.89550E+01 2.83512E-01-7.82333E-02 4.60806E-01 2.18221E-02-3.42605E-02-6.56391E-02 5.29111E+01-2.11621E+01-1.16165E+01



 n o d a l   p r i n t   o u t   f o r   t i m e  s t e p   47405                              ( at time 2.3699628E+01 )

 nodal point  x-rot      y-rot       z-rot       x-rot vel   y-rot vel   z-rot vel   x-rot acc   y-rot acc   z-rot acc
    22626  2.83590E-01 1.64518E-01-7.79867E-02 1.81427E-02 8.25942E-03-5.64783E-03-5.79298E-04-4.43387E-04 3.98619E-04



 n o d a l   p r i n t   o u t   f o r   t i m e  s t e p   47605                              ( at time 2.3799618E+01 )

 nodal point  x-disp     y-disp      z-disp      x-vel       y-vel       z-vel      x-accl      y-accl      z-accl      x-coor      y-coor      z-coor
    22626  4.97540E+00 8.59743E-01-1.89093E+01 2.85652E-01-8.12868E-02 4.54142E-01 2.14016E-02-3.05384E-02-6.66454E-02 5.29396E+01-2.11700E+01-1.15707E+01



 n o d a l   p r i n t   o u t   f o r   t i m e  s t e p   47605                              ( at time 2.3799618E+01 )

 nodal point  x-rot      y-rot       z-rot       x-rot vel   y-rot vel   z-rot vel   x-rot acc   y-rot acc   z-rot acc
    22626  2.85402E-01 1.65341E-01-7.85496E-02 1.80979E-02 8.20117E-03-5.61221E-03-4.48612E-04-5.82607E-04 3.56205E-04



 n o d a l   p r i n t   o u t   f o r   t i m e  s t e p   47805                              ( at time 2.3899608E+01 )

 nodal point  x-disp     y-disp      z-disp      x-vel       y-vel       z-vel      x-accl      y-accl      z-accl      x-coor      y-coor      z-coor
    22626  5.00406E+00 8.51523E-01-1.88642E+01 2.87516E-01-8.30750E-02 4.47206E-01 1.86407E-02-1.78845E-02-6.93707E-02 5.29682E+01-2.11783E+01-1.15257E+01



 n o d a l   p r i n t   o u t   f o r   t i m e  s t e p   47805                              ( at time 2.3899608E+01 )

 nodal point  x-rot      y-rot       z-rot       x-rot vel   y-rot vel   z-rot vel   x-rot acc   y-rot acc   z-rot acc
    22626  2.87209E-01 1.66159E-01-7.91088E-02 1.80460E-02 8.15229E-03-5.57597E-03-5.18161E-04-4.88803E-04 3.62401E-04



 n o d a l   p r i n t   o u t   f o r   t i m e  s t e p   48005                              ( at time 2.3999598E+01 )

 nodal point  x-disp     y-disp      z-disp      x-vel       y-vel       z-vel      x-accl      y-accl      z-accl      x-coor      y-coor      z-coor
    22626  5.03286E+00 8.43129E-01-1.88198E+01 2.88943E-01-8.47196E-02 4.41214E-01 1.42688E-02-1.64476E-02-5.99269E-02 5.29970E+01-2.11867E+01-1.14813E+01



 n o d a l   p r i n t   o u t   f o r   t i m e  s t e p   48005                              ( at time 2.3999598E+01 )

 nodal point  x-rot      y-rot       z-rot       x-rot vel   y-rot vel   z-rot vel   x-rot acc   y-rot acc   z-rot acc
    22626  2.89012E-01 1.66972E-01-7.96648E-02 1.80195E-02 8.10927E-03-5.54804E-03-2.65903E-04-4.30207E-04 2.79353E-04



 n o d a l   p r i n t   o u t   f o r   t i m e  s t e p   48205                              ( at time 2.4099588E+01 )

 nodal point  x-disp     y-disp      z-disp      x-vel       y-vel       z-vel      x-accl      y-accl      z-accl      x-coor      y-coor      z-coor
    22626  5.06183E+00 8.34598E-01-1.87760E+01 2.90357E-01-8.55275E-02 4.35364E-01 1.41446E-02-8.07948E-03-5.84981E-02 5.30260E+01-2.11952E+01-1.14375E+01



 n o d a l   p r i n t   o u t   f o r   t i m e  s t e p   48205                              ( at time 2.4099588E+01 )

 nodal point  x-rot      y-rot       z-rot       x-rot vel   y-rot vel   z-rot vel   x-rot acc   y-rot acc   z-rot acc
    22626  2.90812E-01 1.67780E-01-8.02182E-02 1.79840E-02 8.06718E-03-5.52462E-03-3.54885E-04-4.20950E-04 2.34240E-04



 n o d a l   p r i n t   o u t   f o r   t i m e  s t e p   48405                              ( at time 2.4199578E+01 )

 nodal point  x-disp     y-disp      z-disp      x-vel       y-vel       z-vel      x-accl      y-accl      z-accl      x-coor      y-coor      z-coor
    22626  5.09092E+00 8.26006E-01-1.87327E+01 2.91442E-01-8.61038E-02 4.29148E-01 1.08457E-02-5.76374E-03-6.21662E-02 5.30551E+01-2.12038E+01-1.13942E+01



 n o d a l   p r i n t   o u t   f o r   t i m e  s t e p   48405                              ( at time 2.4199578E+01 )

 nodal point  x-rot      y-rot       z-rot       x-rot vel   y-rot vel   z-rot vel   x-rot acc   y-rot acc   z-rot acc
    22626  2.92609E-01 1.68585E-01-8.07693E-02 1.79592E-02 8.02374E-03-5.50344E-03-2.47647E-04-4.34473E-04 2.11825E-04



 n o d a l   p r i n t   o u t   f o r   t i m e  s t e p   48605                              ( at time 2.4299568E+01 )

 nodal point  x-disp     y-disp      z-disp      x-vel       y-vel       z-vel      x-accl      y-accl      z-accl      x-coor      y-coor      z-coor
    22626  5.12011E+00 8.17413E-01-1.86901E+01 2.92305E-01-8.56661E-02 4.24347E-01 8.63274E-03 4.37762E-03-4.80153E-02 5.30843E+01-2.12124E+01-1.13516E+01



 n o d a l   p r i n t   o u t   f o r   t i m e  s t e p   48605                              ( at time 2.4299568E+01 )

 nodal point  x-rot      y-rot       z-rot       x-rot vel   y-rot vel   z-rot vel   x-rot acc   y-rot acc   z-rot acc
    22626  2.94404E-01 1.69386E-01-8.13185E-02 1.79451E-02 7.99532E-03-5.48301E-03-1.41239E-04-2.84238E-04 2.04328E-04



 n o d a l   p r i n t   o u t   f o r   t i m e  s t e p   48805                              ( at time 2.4399558E+01 )

 nodal point  x-disp     y-disp      z-disp      x-vel       y-vel       z-vel      x-accl      y-accl      z-accl      x-coor      y-coor      z-coor
    22626  5.14938E+00 8.08883E-01-1.86479E+01 2.93065E-01-8.51688E-02 4.19261E-01 7.60506E-03 4.97372E-03-5.08689E-02 5.31136E+01-2.12209E+01-1.13094E+01



 n o d a l   p r i n t   o u t   f o r   t i m e  s t e p   48805                              ( at time 2.4399558E+01 )

 nodal point  x-rot      y-rot       z-rot       x-rot vel   y-rot vel   z-rot vel   x-rot acc   y-rot acc   z-rot acc
    22626  2.96197E-01 1.70183E-01-8.18662E-02 1.79234E-02 7.96494E-03-5.46550E-03-2.17055E-04-3.03835E-04 1.75114E-04



 n o d a l   p r i n t   o u t   f o r   t i m e  s t e p   49006                              ( at time 2.4500048E+01 )

 nodal point  x-disp     y-disp      z-disp      x-vel       y-vel       z-vel      x-accl      y-accl      z-accl      x-coor      y-coor      z-coor
    22626  5.17886E+00 8.00375E-01-1.86060E+01 2.93663E-01-8.40572E-02 4.14535E-01 5.94334E-03 1.10615E-02-4.70295E-02 5.31430E+01-2.12294E+01-1.12675E+01



 n o d a l   p r i n t   o u t   f o r   t i m e  s t e p   49006                              ( at time 2.4500048E+01 )

 nodal point  x-rot      y-rot       z-rot       x-rot vel   y-rot vel   z-rot vel   x-rot acc   y-rot acc   z-rot acc
    22626  2.97998E-01 1.70982E-01-8.24150E-02 1.79134E-02 7.93455E-03-5.45149E-03-9.95191E-05-3.02376E-04 1.39413E-04



 n o d a l   p r i n t   o u t   f o r   t i m e  s t e p   49206                              ( at time 2.4600038E+01 )

 nodal point  x-disp     y-disp      z-disp      x-vel       y-vel       z-vel      x-accl      y-accl      z-accl      x-coor      y-coor      z-coor
    22626  5.20824E+00 7.92057E-01-1.85647E+01 2.94021E-01-8.25709E-02 4.11019E-01 3.58763E-03 1.48641E-02-3.51622E-02 5.31724E+01-2.12377E+01-1.12262E+01



 n o d a l   p r i n t   o u t   f o r   t i m e  s t e p   49206                              ( at time 2.4600038E+01 )

 nodal point  x-rot      y-rot       z-rot       x-rot vel   y-rot vel   z-rot vel   x-rot acc   y-rot acc   z-rot acc
    22626  2.99788E-01 1.71774E-01-8.29599E-02 1.79005E-02 7.90954E-03-5.44367E-03-1.28553E-04-2.50176E-04 7.82010E-05



 n o d a l   p r i n t   o u t   f o r   t i m e  s t e p   49406                              ( at time 2.4700028E+01 )

 nodal point  x-disp     y-disp      z-disp      x-vel       y-vel       z-vel      x-accl      y-accl      z-accl      x-coor      y-coor      z-coor
    22626  5.23764E+00 7.83870E-01-1.85239E+01 2.94050E-01-8.09566E-02 4.06278E-01 2.83153E-04 1.61454E-02-4.74139E-02 5.32018E+01-2.12459E+01-1.11854E+01



 n o d a l   p r i n t   o u t   f o r   t i m e  s t e p   49406                              ( at time 2.4700028E+01 )

 nodal point  x-rot      y-rot       z-rot       x-rot vel   y-rot vel   z-rot vel   x-rot acc   y-rot acc   z-rot acc
    22626  3.01578E-01 1.72564E-01-8.35042E-02 1.78931E-02 7.88637E-03-5.44266E-03-7.38062E-05-2.31683E-04 1.00780E-05



 n o d a l   p r i n t   o u t   f o r   t i m e  s t e p   49606                              ( at time 2.4800018E+01 )

 nodal point  x-disp     y-disp      z-disp      x-vel       y-vel       z-vel      x-accl      y-accl      z-accl      x-coor      y-coor      z-coor
    22626  5.26705E+00 7.75852E-01-1.84834E+01 2.93944E-01-7.93368E-02 4.02808E-01-1.05659E-03 1.61991E-02-3.47071E-02 5.32312E+01-2.12539E+01-1.11449E+01



 n o d a l   p r i n t   o u t   f o r   t i m e  s t e p   49606                              ( at time 2.4800018E+01 )

 nodal point  x-rot      y-rot       z-rot       x-rot vel   y-rot vel   z-rot vel   x-rot acc   y-rot acc   z-rot acc
    22626  3.03367E-01 1.73352E-01-8.40477E-02 1.78933E-02 7.86648E-03-5.43005E-03 1.69516E-06-1.98949E-04 1.26113E-04



 n o d a l   p r i n t   o u t   f o r   t i m e  s t e p   49806                              ( at time 2.4900008E+01 )

 nodal point  x-disp     y-disp      z-disp      x-vel       y-vel       z-vel      x-accl      y-accl      z-accl      x-coor      y-coor      z-coor
    22626  5.29644E+00 7.67992E-01-1.84433E+01 2.93911E-01-7.79487E-02 3.99404E-01-3.32035E-04 1.38826E-02-3.40422E-02 5.32606E+01-2.12618E+01-1.11048E+01



 n o d a l   p r i n t   o u t   f o r   t i m e  s t e p   49806                              ( at time 2.4900008E+01 )

 nodal point  x-rot      y-rot       z-rot       x-rot vel   y-rot vel   z-rot vel   x-rot acc   y-rot acc   z-rot acc
    22626  3.05156E-01 1.74137E-01-8.45906E-02 1.79004E-02 7.85305E-03-5.42418E-03 7.06766E-05-1.34349E-04 5.87636E-05



 n o d a l   p r i n t   o u t   f o r   t i m e  s t e p   50006                              ( at time 2.4999998E+01 )

 nodal point  x-disp     y-disp      z-disp      x-vel       y-vel       z-vel      x-accl      y-accl      z-accl      x-coor      y-coor      z-coor
    22626  5.32580E+00 7.60272E-01-1.84036E+01 2.93550E-01-7.67823E-02 3.96228E-01-3.60582E-03 1.16647E-02-3.17680E-02 5.32900E+01-2.12695E+01-1.10651E+01



 n o d a l   p r i n t   o u t   f o r   t i m e  s t e p   50006                              ( at time 2.4999998E+01 )

 nodal point  x-rot      y-rot       z-rot       x-rot vel   y-rot vel   z-rot vel   x-rot acc   y-rot acc   z-rot acc
    22626  3.06946E-01 1.74922E-01-8.51332E-02 1.78955E-02 7.84019E-03-5.42371E-03-4.83401E-05-1.28590E-04 4.68032E-06
