 LSTC 50th% Full_FE H-III Dummy (Beta Version, February 17, 2019)        
                    ls-dyna smp s R16 R16.0_619_d222963 date 03/18/2025

{BEGIN LEGEND}
 Entity #        Title
        1     Upper_Neck_Force_INJURY                                              
{END LEGEND}



 line#1  section#     time        x-force     y-force     z-force    magnitude
 line#2  resultant  moments       x-moment    y-moment    z-moment   magnitude
 line#3  centroids                x           y           z            area  
           1    0.00000E+00     0.0000E+00  0.0000E+00  0.0000E+00  0.0000E+00
ac ID =   33377                 0.0000E+00  0.0000E+00  0.0000E+00  0.0000E+00
                               -3.7437E-01  1.0501E+01 -4.6940E+01  0.0000E+00

           1    1.00490E-01     1.3607E-04 -4.9878E-03  2.5982E-01  2.5987E-01
ac ID =   33377                 4.2549E-01 -1.2521E+00 -2.7107E-02  1.3227E+00
                               -3.7387E-01  1.0590E+01 -4.6886E+01  2.5147E+03

           1    2.00480E-01    -4.4335E-02  6.1468E-04  4.4138E-01  4.4360E-01
ac ID =   33377                 3.0910E-01 -1.5980E+00  2.2696E-02  1.6278E+00
                               -3.7386E-01  1.0591E+01 -4.6888E+01  2.5147E+03

           1    3.00470E-01     1.4615E-02 -3.0424E-03  2.1770E-01  2.1821E-01
ac ID =   33377                 2.1222E-02 -3.3472E-01  6.2296E-02  3.4113E-01
                               -3.7382E-01  1.0591E+01 -4.6889E+01  2.5147E+03

           1    4.00460E-01     2.9449E-03  1.0806E-02  8.8050E-02  8.8760E-02
ac ID =   33377                -4.9660E-01 -9.4914E-01  4.1940E-03  1.0712E+00
                               -3.7384E-01  1.0592E+01 -4.6890E+01  2.5147E+03

           1    5.00450E-01    -4.0684E-02  4.4718E-03  1.6192E-01  1.6701E-01
ac ID =   33377                -3.9292E-01 -1.5075E+00 -1.0937E-01  1.5617E+00
                               -3.7385E-01  1.0594E+01 -4.6893E+01  2.5147E+03

           1    6.00440E-01    -1.1951E-02  3.9798E-03  3.4496E-01  3.4519E-01
ac ID =   33377                 9.3924E-02 -1.3496E+00 -3.7677E-02  1.3534E+00
                               -3.7385E-01  1.0595E+01 -4.6897E+01  2.5147E+03

           1    7.00430E-01     1.0355E-03 -4.8293E-03  2.9815E-01  2.9819E-01
ac ID =   33377                 1.2667E-01 -5.6522E-01  8.3491E-02  5.8522E-01
                               -3.7389E-01  1.0597E+01 -4.6901E+01  2.5147E+03

           1    8.00420E-01    -3.0967E-02 -4.8318E-04  1.0513E-01  1.0959E-01
ac ID =   33377                 6.2517E-02 -1.0906E+00  4.4100E-02  1.0932E+00
                               -3.7393E-01  1.0599E+01 -4.6905E+01  2.5147E+03

           1    9.00410E-01    -3.9957E-02  1.7121E-03  6.6873E-02  7.7920E-02
ac ID =   33377                 6.9903E-02 -1.1339E+00 -8.3540E-03  1.1361E+00
                               -3.7396E-01  1.0601E+01 -4.6909E+01  2.5147E+03

           1    1.00040E+00     1.2388E-02 -2.0073E-03  2.2751E-01  2.2786E-01
ac ID =   33377                 3.0895E-01 -4.0551E-01 -6.6041E-02  5.1405E-01
                               -3.7394E-01  1.0604E+01 -4.6915E+01  2.5147E+03

           1    1.10039E+00     1.2797E-03  1.9698E-03  2.7984E-01  2.7985E-01
ac ID =   33377                 2.0070E-01 -9.0367E-01 -7.7600E-02  9.2894E-01
                               -3.7389E-01  1.0606E+01 -4.6921E+01  2.5147E+03

           1    1.20038E+00    -3.4369E-02  4.2583E-03  1.3930E-01  1.4354E-01
ac ID =   33377                -3.2487E-01 -1.2852E+00  2.2377E-02  1.3259E+00
                               -3.7383E-01  1.0609E+01 -4.6926E+01  2.5147E+03

           1    1.30037E+00    -1.3217E-02  3.0825E-03  8.6124E-02  8.7187E-02
ac ID =   33377                -3.2465E-01 -9.7852E-01 -2.7218E-02  1.0313E+00
                               -3.7376E-01  1.0612E+01 -4.6932E+01  2.5147E+03

           1    1.40036E+00     5.2039E-03  6.9832E-03  1.8846E-01  1.8866E-01
ac ID =   33377                -4.9611E-01 -9.8596E-01 -3.8767E-02  1.1044E+00
                               -3.7366E-01  1.0615E+01 -4.6939E+01  2.5147E+03

           1    1.50035E+00    -3.2804E-02  1.1263E-02  3.4707E-01  3.4880E-01
ac ID =   33377                -3.2063E-01 -1.8128E+00 -3.3711E-02  1.8412E+00
                               -3.7354E-01  1.0618E+01 -4.6947E+01  2.5147E+03

           1    1.60034E+00    -2.4830E-02 -5.7363E-03  2.4630E-01  2.4762E-01
ac ID =   33377                 2.2259E-02 -1.7040E+00 -3.2917E-02  1.7045E+00
                               -3.7341E-01  1.0622E+01 -4.6954E+01  2.5147E+03

           1    1.70033E+00    -6.1477E-03  1.5785E-03  7.5623E-02  7.5889E-02
ac ID =   33377                -2.4723E-01 -8.9468E-01  3.3267E-02  9.2880E-01
                               -3.7327E-01  1.0625E+01 -4.6961E+01  2.5147E+03

           1    1.80032E+00    -3.0260E-02 -1.0860E-03  8.9026E-02  9.4034E-02
ac ID =   33377                 6.8720E-02 -1.5125E+00  2.9167E-02  1.5144E+00
                               -3.7314E-01  1.0628E+01 -4.6969E+01  2.5147E+03

           1    1.90031E+00    -1.5026E-02  3.6649E-03  2.0398E-01  2.0457E-01
ac ID =   33377                -3.8372E-02 -1.2021E+00 -2.7447E-02  1.2030E+00
                               -3.7297E-01  1.0633E+01 -4.6978E+01  2.5147E+03

           1    2.00030E+00    -1.8562E-03  1.3837E-03  1.6658E-01  1.6659E-01
ac ID =   33377                 2.6884E-02 -6.3239E-01 -1.5952E-01  6.5275E-01
                               -3.7277E-01  1.0636E+01 -4.6987E+01  2.5147E+03

           1    2.10029E+00    -3.1065E-02 -7.1189E-04  1.6384E-02  3.5128E-02
ac ID =   33377                -1.0993E-01 -1.0354E+00  2.4151E-02  1.0415E+00
                               -3.7255E-01  1.0640E+01 -4.6996E+01  2.5147E+03

           1    2.20028E+00    -3.1196E-02  1.7995E-02  2.0920E-02  4.1649E-02
ac ID =   33377                -7.5381E-01 -1.2001E+00  9.9807E-02  1.4207E+00
                               -3.7227E-01  1.0644E+01 -4.7005E+01  2.5147E+03

           1    2.30027E+00    -2.3582E-03  7.0413E-03  1.5987E-01  1.6005E-01
ac ID =   33377                -2.8127E-01 -1.1955E+00  9.0424E-02  1.2315E+00
                               -3.7198E-01  1.0648E+01 -4.7015E+01  2.5147E+03

           1    2.40026E+00    -2.2778E-02 -9.5730E-03  2.0206E-01  2.0357E-01
ac ID =   33377                -2.1511E-01 -1.7048E+00  4.4978E-02  1.7189E+00
                               -3.7174E-01  1.0653E+01 -4.7025E+01  2.5147E+03

           1    2.50025E+00    -2.1833E-02 -1.1738E-02  3.2344E-03  2.4999E-02
ac ID =   33377                -5.2671E-02 -1.3045E+00 -1.5866E-01  1.3152E+00
                               -3.7164E-01  1.0657E+01 -4.7035E+01  2.5147E+03

           1    2.60024E+00    -1.9583E-02  1.4025E-02 -6.2589E-02  6.7064E-02
ac ID =   33377                -3.2166E-01 -5.3018E-01  7.6836E-02  6.2487E-01
                               -3.7165E-01  1.0661E+01 -4.7046E+01  2.5147E+03

           1    2.70023E+00    -2.4022E-02  7.9166E-03  3.6009E-02  4.4004E-02
ac ID =   33377                -1.2981E-01 -7.8074E-01  4.6012E-02  7.9279E-01
                               -3.7156E-01  1.0666E+01 -4.7057E+01  2.5147E+03

           1    2.80022E+00    -1.4834E-02 -5.1409E-03  7.3804E-02  7.5456E-02
ac ID =   33377                 1.8032E-01 -5.9180E-01 -4.4627E-02  6.2027E-01
                               -3.7134E-01  1.0670E+01 -4.7068E+01  2.5147E+03

           1    2.90021E+00     3.7046E-04 -1.7272E-02  2.5820E-03  1.7468E-02
ac ID =   33377                 2.6412E-01 -3.0252E-01 -2.9237E-02  4.0266E-01
                               -3.7115E-01  1.0675E+01 -4.7078E+01  2.5147E+03

           1    3.00020E+00    -1.8875E-02  2.9795E-03 -7.4218E-02  7.6638E-02
ac ID =   33377                -4.1694E-01 -6.1790E-01 -1.7314E-02  7.4561E-01
                               -3.7105E-01  1.0679E+01 -4.7089E+01  2.5147E+03

           1    3.10019E+00    -1.0085E-02  1.2419E-02  1.5301E-02  2.2137E-02
ac ID =   33377                -2.6269E-01 -7.9173E-01 -1.4767E-01  8.4714E-01
                               -3.7096E-01  1.0683E+01 -4.7100E+01  2.5147E+03

           1    3.20018E+00    -8.7780E-03  7.9054E-03  9.6829E-02  9.7547E-02
ac ID =   33377                -4.6342E-01 -8.6483E-01  1.4417E-01  9.9170E-01
                               -3.7081E-01  1.0688E+01 -4.7112E+01  2.5147E+03

           1    3.30017E+00    -7.8163E-03 -1.0345E-02  2.6885E-02  2.9848E-02
ac ID =   33377                -6.7397E-02 -1.0678E+00  3.0697E-02  1.0704E+00
                               -3.7069E-01  1.0692E+01 -4.7123E+01  2.5147E+03

           1    3.40016E+00    -1.4631E-02 -5.3963E-03 -8.0255E-02  8.1756E-02
ac ID =   33377                -1.8317E-01 -8.1867E-01  7.7530E-02  8.4249E-01
                               -3.7066E-01  1.0696E+01 -4.7134E+01  2.5147E+03

           1    3.50015E+00    -1.4594E-02  2.3898E-02 -9.5821E-02  9.9829E-02
ac ID =   33377                -3.4643E-01 -5.3400E-01  1.6018E-01  6.5638E-01
                               -3.7063E-01  1.0701E+01 -4.7146E+01  2.5147E+03

           1    3.60014E+00    -2.2536E-03 -3.3046E-03 -2.6182E-02  2.6486E-02
ac ID =   33377                 1.7351E-01  9.5872E-02 -1.3340E-01  2.3894E-01
                               -3.7049E-01  1.0705E+01 -4.7158E+01  2.5147E+03

           1    3.70013E+00    -6.2351E-03 -2.1331E-02 -2.4278E-02  3.2913E-02
ac ID =   33377                 5.4148E-01  8.0034E-02 -7.3256E-02  5.5224E-01
                               -3.7036E-01  1.0709E+01 -4.7170E+01  2.5147E+03

           1    3.80012E+00    -6.4393E-03  5.7319E-03 -1.1152E-01  1.1185E-01
ac ID =   33377                -2.7982E-01  2.3604E-01  1.6979E-01  4.0354E-01
                               -3.7026E-01  1.0713E+01 -4.7181E+01  2.5147E+03

           1    3.90011E+00     1.2764E-02  8.8626E-03 -1.7081E-01  1.7151E-01
ac ID =   33377                -4.4968E-01  4.5477E-01  7.4660E-02  6.4390E-01
                               -3.7014E-01  1.0717E+01 -4.7192E+01  2.5147E+03

           1    4.00010E+00    -1.2192E-02 -3.1350E-03 -1.0714E-01  1.0787E-01
ac ID =   33377                -2.9487E-01 -2.1891E-01 -5.2416E-02  3.7097E-01
                               -3.6997E-01  1.0721E+01 -4.7204E+01  2.5147E+03

           1    4.10009E+00    -9.6104E-03 -8.1685E-03 -7.9762E-02  8.0753E-02
ac ID =   33377                -1.4025E-01 -1.6173E-01 -7.1378E-02  2.2566E-01
                               -3.6983E-01  1.0725E+01 -4.7215E+01  2.5147E+03

           1    4.20008E+00    -5.2858E-03 -1.9584E-03 -1.1744E-01  1.1757E-01
ac ID =   33377                -1.4914E-01 -7.5829E-02  4.8045E-02  1.7407E-01
                               -3.6978E-01  1.0728E+01 -4.7226E+01  2.5147E+03

           1    4.30007E+00    -2.1894E-03  8.4619E-04 -2.3067E-01  2.3068E-01
ac ID =   33377                -3.3672E-01  3.0628E-01  5.4802E-02  4.5847E-01
                               -3.6981E-01  1.0731E+01 -4.7237E+01  2.5147E+03

           1    4.40006E+00     2.1970E-03  4.6087E-03 -1.8943E-01  1.8950E-01
ac ID =   33377                 2.2317E-01  3.9455E-01 -3.0817E-02  4.5434E-01
                               -3.6977E-01  1.0734E+01 -4.7248E+01  2.5147E+03

           1    4.50005E+00    -4.7682E-03 -2.6204E-03 -8.3992E-02  8.4168E-02
ac ID =   33377                 2.4407E-02 -3.7405E-02 -1.3084E-01  1.3826E-01
                               -3.6969E-01  1.0737E+01 -4.7258E+01  2.5147E+03

           1    4.60004E+00    -1.1466E-03 -1.1086E-02 -1.2569E-01  1.2618E-01
ac ID =   33377                 6.1441E-01  1.8117E-01 -5.1762E-02  6.4265E-01
                               -3.6961E-01  1.0740E+01 -4.7269E+01  2.5147E+03

           1    4.70003E+00     6.8112E-03  7.9907E-03 -2.1986E-01  2.2011E-01
ac ID =   33377                -2.9367E-01  3.7542E-01  1.8768E-01  5.1226E-01
                               -3.6958E-01  1.0743E+01 -4.7278E+01  2.5147E+03

           1    4.80002E+00     2.0742E-03  1.8740E-02 -2.3964E-01  2.4038E-01
ac ID =   33377                -6.0897E-01  1.4346E-01  1.9999E-01  6.5683E-01
                               -3.6951E-01  1.0745E+01 -4.7288E+01  2.5147E+03

           1    4.90001E+00    -5.9102E-03  4.0957E-03 -1.6589E-01  1.6604E-01
ac ID =   33377                -4.8060E-01  1.2494E-01  7.1014E-02  5.0163E-01
                               -3.6934E-01  1.0747E+01 -4.7298E+01  2.5147E+03

           1    5.00000E+00     5.8217E-03 -6.6648E-03 -1.3587E-01  1.3615E-01
ac ID =   33377                -1.6962E-01  2.8963E-02  1.1058E-02  1.7243E-01
                               -3.6916E-01  1.0750E+01 -4.7308E+01  2.5147E+03

           1    5.10049E+00     1.5011E-02  6.3473E-03 -2.1981E-01  2.2041E-01
ac ID =   33377                -4.6459E-01  2.4451E-01  2.0500E-02  5.2540E-01
                               -3.6904E-01  1.0752E+01 -4.7316E+01  2.5147E+03

           1    5.20048E+00     1.1304E-02  5.6838E-03 -2.7359E-01  2.7388E-01
ac ID =   33377                -3.3672E-01  6.5101E-01 -2.3245E-03  7.3294E-01
                               -3.6894E-01  1.0754E+01 -4.7325E+01  2.5147E+03

           1    5.30047E+00     1.1803E-02 -8.4226E-04 -2.3595E-01  2.3625E-01
ac ID =   33377                -2.8047E-02  6.1229E-01 -2.7644E-02  6.1355E-01
                               -3.6880E-01  1.0756E+01 -4.7334E+01  2.5147E+03

           1    5.40046E+00     2.6585E-02 -8.0254E-03 -1.8878E-01  1.9081E-01
ac ID =   33377                 6.7236E-02  6.0760E-01 -4.9309E-02  6.1330E-01
                               -3.6862E-01  1.0758E+01 -4.7343E+01  2.5147E+03

           1    5.50045E+00     3.3089E-02  4.1332E-03 -2.7796E-01  2.7995E-01
ac ID =   33377                -8.3904E-02  8.8069E-01 -6.4061E-02  8.8700E-01
                               -3.6846E-01  1.0761E+01 -4.7351E+01  2.5147E+03

           1    5.60044E+00     2.6490E-02  2.6881E-03 -3.7025E-01  3.7121E-01
ac ID =   33377                -4.3274E-01  9.2296E-01 -6.9022E-02  1.0217E+00
                               -3.6832E-01  1.0764E+01 -4.7359E+01  2.5147E+03

           1    5.70043E+00     3.3317E-02  7.1416E-03 -3.8276E-01  3.8427E-01
ac ID =   33377                -5.1753E-01  9.6663E-01  8.5170E-02  1.0998E+00
                               -3.6815E-01  1.0767E+01 -4.7367E+01  2.5147E+03

           1    5.80042E+00     4.4657E-02 -6.7168E-03 -3.1783E-01  3.2102E-01
ac ID =   33377                -4.3126E-01  1.0623E+00  1.8767E-01  1.1618E+00
                               -3.6802E-01  1.0771E+01 -4.7376E+01  2.5147E+03

           1    5.90041E+00     6.1729E-02  5.8842E-03 -3.3277E-01  3.3850E-01
ac ID =   33377                -3.7512E-01  1.3417E+00  1.7198E-01  1.4037E+00
                               -3.6794E-01  1.0776E+01 -4.7384E+01  2.5147E+03

           1    6.00040E+00     5.0501E-02  3.6044E-03 -4.1565E-01  4.1872E-01
ac ID =   33377                -4.7101E-01  1.4348E+00 -8.8689E-02  1.5127E+00
                               -3.6787E-01  1.0781E+01 -4.7391E+01  2.5147E+03

           1    6.10039E+00     6.3826E-02 -2.0243E-03 -4.2721E-01  4.3196E-01
ac ID =   33377                 1.2343E-02  1.4178E+00 -2.9792E-01  1.4488E+00
                               -3.6784E-01  1.0787E+01 -4.7399E+01  2.5147E+03

           1    6.20038E+00     6.6360E-02 -7.7401E-03 -3.8939E-01  3.9508E-01
ac ID =   33377                -9.4162E-02  1.3372E+00 -7.9214E-02  1.3428E+00
                               -3.6776E-01  1.0795E+01 -4.7408E+01  2.5147E+03

           1    6.30037E+00     6.4347E-02  4.2787E-04 -3.8481E-01  3.9016E-01
ac ID =   33377                -2.2165E-01  1.1241E+00  1.3522E-01  1.1537E+00
                               -3.6772E-01  1.0804E+01 -4.7416E+01  2.5147E+03

           1    6.40036E+00     7.5103E-02  1.7414E-02 -4.9574E-01  5.0170E-01
ac ID =   33377                -5.6284E-01  1.6370E+00  1.5314E-01  1.7378E+00
                               -3.6768E-01  1.0814E+01 -4.7425E+01  2.5147E+03

           1    6.50035E+00     8.9121E-02 -1.9741E-03 -5.6189E-01  5.6891E-01
ac ID =   33377                -4.7901E-01  2.2386E+00 -3.4386E-02  2.2895E+00
                               -3.6753E-01  1.0826E+01 -4.7433E+01  2.5147E+03

           1    6.60034E+00     9.6226E-02  3.2459E-03 -5.3173E-01  5.4038E-01
ac ID =   33377                -7.2264E-01  2.2554E+00 -2.4325E-01  2.3808E+00
                               -3.6746E-01  1.0840E+01 -4.7443E+01  2.5147E+03

           1    6.70033E+00     9.7377E-02  1.1045E-02 -5.1057E-01  5.1989E-01
ac ID =   33377                -8.7221E-01  2.2789E+00  1.9334E-01  2.4477E+00
                               -3.6746E-01  1.0856E+01 -4.7453E+01  2.5147E+03

           1    6.80032E+00     1.1661E-01  1.0045E-02 -5.5411E-01  5.6634E-01
ac ID =   33377                -4.1142E-01  2.5718E+00  3.3169E-01  2.6255E+00
                               -3.6743E-01  1.0874E+01 -4.7463E+01  2.5147E+03

           1    6.90031E+00     1.1824E-01  5.3030E-04 -6.5659E-01  6.6715E-01
ac ID =   33377                -4.1574E-01  3.0847E+00  1.6457E-01  3.1169E+00
                               -3.6739E-01  1.0893E+01 -4.7474E+01  2.5147E+03

           1    7.00030E+00     9.9398E-02  7.6656E-03 -6.5532E-01  6.6286E-01
ac ID =   33377                -2.7290E-01  2.7254E+00 -1.2501E-02  2.7391E+00
                               -3.6738E-01  1.0916E+01 -4.7486E+01  2.5147E+03

           1    7.10029E+00     1.1941E-01 -5.6349E-03 -6.4532E-01  6.5629E-01
ac ID =   33377                -1.3905E-02  2.8961E+00 -6.4185E-02  2.8969E+00
                               -3.6736E-01  1.0940E+01 -4.7498E+01  2.5147E+03

           1    7.20028E+00     1.3042E-01 -1.9986E-03 -7.2458E-01  7.3623E-01
ac ID =   33377                -2.4632E-01  3.3479E+00  3.7402E-02  3.3572E+00
                               -3.6739E-01  1.0967E+01 -4.7511E+01  2.5147E+03

           1    7.30027E+00     1.2824E-01  1.4020E-02 -8.3790E-01  8.4777E-01
ac ID =   33377                -5.4476E-01  3.5699E+00  1.5780E-01  3.6146E+00
                               -3.6749E-01  1.0997E+01 -4.7524E+01  2.5147E+03

           1    7.40026E+00     1.4721E-01  9.8747E-03 -8.7832E-01  8.9062E-01
ac ID =   33377                -5.7628E-01  4.3497E+00  5.3799E-02  4.3880E+00
                               -3.6755E-01  1.1029E+01 -4.7539E+01  2.5147E+03

           1    7.50025E+00     1.5810E-01 -6.2365E-03 -8.5372E-01  8.6826E-01
ac ID =   33377                -3.5471E-01  4.6360E+00 -3.4239E-01  4.6622E+00
                               -3.6763E-01  1.1064E+01 -4.7554E+01  2.5147E+03

           1    7.60024E+00     1.6377E-01  3.2368E-03 -8.8568E-01  9.0070E-01
ac ID =   33377                -3.1858E-01  4.7426E+00 -7.1707E-02  4.7539E+00
                               -3.6780E-01  1.1102E+01 -4.7570E+01  2.5147E+03

           1    7.70023E+00     1.5759E-01  1.7587E-02 -9.5010E-01  9.6324E-01
ac ID =   33377                -5.1856E-01  4.7104E+00  1.6226E-01  4.7416E+00
                               -3.6804E-01  1.1143E+01 -4.7586E+01  2.5147E+03

           1    7.80022E+00     1.5912E-01 -9.2742E-03 -1.0095E+00  1.0220E+00
ac ID =   33377                 2.7500E-01  4.5764E+00 -1.9371E-01  4.5887E+00
                               -3.6823E-01  1.1187E+01 -4.7603E+01  2.5147E+03

           1    7.90021E+00     1.7483E-01  4.9616E-03 -1.0253E+00  1.0402E+00
ac ID =   33377                -8.5750E-02  4.9985E+00 -8.7550E-03  4.9992E+00
                               -3.6845E-01  1.1234E+01 -4.7622E+01  2.5147E+03

           1    8.00020E+00     1.7506E-01  3.3282E-03 -1.0472E+00  1.0617E+00
ac ID =   33377                -1.7925E-01  4.8930E+00  6.3215E-02  4.8967E+00
                               -3.6868E-01  1.1284E+01 -4.7641E+01  2.5147E+03

           1    8.10019E+00     1.9751E-01  7.4593E-03 -1.1751E+00  1.1916E+00
ac ID =   33377                -2.9903E-01  5.9837E+00 -2.7938E-02  5.9913E+00
                               -3.6887E-01  1.1337E+01 -4.7660E+01  2.5147E+03

           1    8.20018E+00     1.9942E-01 -1.9464E-03 -1.2455E+00  1.2614E+00
ac ID =   33377                -2.6782E-01  6.4857E+00 -9.0544E-02  6.4919E+00
                               -3.6904E-01  1.1394E+01 -4.7681E+01  2.5147E+03

           1    8.30017E+00     2.0512E-01  8.8369E-03 -1.2702E+00  1.2867E+00
ac ID =   33377                -6.5541E-01  6.7969E+00  1.6043E-01  6.8303E+00
                               -3.6920E-01  1.1454E+01 -4.7702E+01  2.5147E+03

           1    8.40016E+00     2.1094E-01  4.9128E-03 -1.2920E+00  1.3091E+00
ac ID =   33377                -4.4971E-01  7.2019E+00  2.0732E-01  7.2189E+00
                               -3.6940E-01  1.1517E+01 -4.7724E+01  2.5147E+03

           1    8.50015E+00     2.2446E-01  4.7103E-03 -1.3740E+00  1.3922E+00
ac ID =   33377                -3.0263E-01  7.4236E+00  1.9301E-01  7.4322E+00
                               -3.6958E-01  1.1583E+01 -4.7747E+01  2.5147E+03

           1    8.60014E+00     2.1762E-01 -3.3485E-04 -1.4786E+00  1.4945E+00
ac ID =   33377                -1.5817E-01  7.8428E+00  1.5065E-01  7.8459E+00
                               -3.6975E-01  1.1653E+01 -4.7770E+01  2.5147E+03

           1    8.70013E+00     2.2146E-01 -7.2350E-04 -1.5278E+00  1.5438E+00
ac ID =   33377                -1.8067E-01  7.8715E+00 -1.6809E-01  7.8754E+00
                               -3.6992E-01  1.1726E+01 -4.7793E+01  2.5147E+03

           1    8.80012E+00     2.3201E-01  4.7367E-03 -1.5700E+00  1.5871E+00
ac ID =   33377                -1.2863E-01  8.1079E+00 -1.1647E-01  8.1097E+00
                               -3.7008E-01  1.1802E+01 -4.7817E+01  2.5147E+03

           1    8.90011E+00     2.5201E-01 -8.8109E-05 -1.6516E+00  1.6707E+00
ac ID =   33377                -1.5049E-01  8.8169E+00  1.9008E-01  8.8202E+00
                               -3.7017E-01  1.1881E+01 -4.7842E+01  2.5147E+03

           1    9.00010E+00     2.4388E-01  4.1878E-03 -1.7673E+00  1.7841E+00
ac ID =   33377                -2.7645E-01  9.3000E+00  1.2771E-01  9.3050E+00
                               -3.7030E-01  1.1964E+01 -4.7866E+01  2.5147E+03

           1    9.10009E+00     2.5211E-01  2.1839E-03 -1.8245E+00  1.8418E+00
ac ID =   33377                -3.1893E-01  9.8754E+00 -2.2325E-02  9.8805E+00
                               -3.7042E-01  1.2050E+01 -4.7891E+01  2.5147E+03

           1    9.20008E+00     2.7490E-01  2.8047E-02 -1.8792E+00  1.8994E+00
ac ID =   33377                -8.4580E-01  1.0273E+01  1.6002E-02  1.0308E+01
                               -3.7053E-01  1.2139E+01 -4.7916E+01  2.5147E+03

           1    9.30007E+00     2.6702E-01 -7.1959E-04 -1.9390E+00  1.9573E+00
ac ID =   33377                -4.1810E-01  1.0272E+01  2.3540E-01  1.0283E+01
                               -3.7055E-01  1.2231E+01 -4.7941E+01  2.5147E+03

           1    9.40006E+00     2.7881E-01  8.9085E-03 -2.0436E+00  2.0626E+00
ac ID =   33377                -4.4430E-01  1.0702E+01  2.3334E-01  1.0713E+01
                               -3.7059E-01  1.2327E+01 -4.7965E+01  2.5147E+03

           1    9.50005E+00     2.8345E-01  1.2939E-02 -2.1488E+00  2.1674E+00
ac ID =   33377                -6.3704E-01  1.1381E+01  1.6711E-01  1.1400E+01
                               -3.7059E-01  1.2425E+01 -4.7990E+01  2.5147E+03

           1    9.60004E+00     2.9336E-01  8.6681E-03 -2.1805E+00  2.2002E+00
ac ID =   33377                -3.8838E-01  1.1775E+01  4.5555E-02  1.1781E+01
                               -3.7053E-01  1.2527E+01 -4.8014E+01  2.5147E+03

           1    9.70003E+00     3.0725E-01 -7.9906E-03 -2.2481E+00  2.2690E+00
ac ID =   33377                -8.7874E-02  1.2567E+01  1.0269E-02  1.2567E+01
                               -3.7045E-01  1.2631E+01 -4.8038E+01  2.5147E+03

           1    9.80002E+00     3.0842E-01  1.0550E-02 -2.3372E+00  2.3575E+00
ac ID =   33377                -6.6737E-01  1.3080E+01  1.8107E-01  1.3098E+01
                               -3.7036E-01  1.2739E+01 -4.8062E+01  2.5147E+03

           1    9.90001E+00     3.2110E-01  1.1748E-02 -2.4394E+00  2.4605E+00
ac ID =   33377                -7.8203E-01  1.3855E+01 -1.4267E-02  1.3877E+01
                               -3.7026E-01  1.2849E+01 -4.8085E+01  2.5147E+03

           1    1.00005E+01     3.2860E-01  7.6373E-04 -2.5177E+00  2.5390E+00
ac ID =   33377                -6.3353E-01  1.4412E+01  4.0924E-02  1.4426E+01
                               -3.7009E-01  1.2963E+01 -4.8107E+01  2.5147E+03

           1    1.01005E+01     3.4888E-01  1.3620E-02 -2.6042E+00  2.6275E+00
ac ID =   33377                -1.0092E+00  1.5122E+01  1.2108E-01  1.5156E+01
                               -3.6997E-01  1.3079E+01 -4.8129E+01  2.5147E+03

           1    1.02005E+01     3.5288E-01  1.0211E-02 -2.7028E+00  2.7258E+00
ac ID =   33377                -9.4720E-01  1.5836E+01 -1.9670E-01  1.5866E+01
                               -3.6986E-01  1.3198E+01 -4.8150E+01  2.5147E+03

           1    1.03005E+01     3.5661E-01  9.4179E-03 -2.8103E+00  2.8328E+00
ac ID =   33377                -1.0561E+00  1.6450E+01  1.2756E-02  1.6484E+01
                               -3.6967E-01  1.3319E+01 -4.8169E+01  2.5147E+03

           1    1.04005E+01     3.7523E-01  5.2823E-03 -2.8948E+00  2.9190E+00
ac ID =   33377                -7.7463E-01  1.7379E+01  2.3719E-02  1.7397E+01
                               -3.6949E-01  1.3443E+01 -4.8188E+01  2.5147E+03

           1    1.05004E+01     3.7610E-01  7.6843E-03 -2.9478E+00  2.9718E+00
ac ID =   33377                -8.0653E-01  1.7804E+01 -8.8948E-03  1.7822E+01
                               -3.6931E-01  1.3569E+01 -4.8205E+01  2.5147E+03

           1    1.06004E+01     3.8354E-01  1.8731E-03 -3.0068E+00  3.0311E+00
ac ID =   33377                -7.3481E-01  1.8332E+01  1.2054E-01  1.8347E+01
                               -3.6907E-01  1.3698E+01 -4.8221E+01  2.5147E+03

           1    1.07004E+01     3.9796E-01  8.3699E-03 -3.0941E+00  3.1196E+00
ac ID =   33377                -7.2028E-01  1.9069E+01 -3.0424E-01  1.9085E+01
                               -3.6889E-01  1.3829E+01 -4.8235E+01  2.5147E+03

           1    1.08004E+01     4.0366E-01  1.1436E-02 -3.1925E+00  3.2179E+00
ac ID =   33377                -8.8821E-01  1.9900E+01 -2.5575E-01  1.9921E+01
                               -3.6868E-01  1.3961E+01 -4.8248E+01  2.5147E+03

           1    1.09004E+01     3.9070E-01  3.0344E-03 -3.2468E+00  3.2702E+00
ac ID =   33377                -9.8217E-01  1.9822E+01  3.5849E-01  1.9850E+01
                               -3.6846E-01  1.4096E+01 -4.8258E+01  2.5147E+03

           1    1.10004E+01     4.1785E-01  1.5405E-02 -3.2999E+00  3.3262E+00
ac ID =   33377                -1.1040E+00  2.0908E+01  2.4419E-01  2.0939E+01
                               -3.6831E-01  1.4233E+01 -4.8266E+01  2.5147E+03

           1    1.11004E+01     4.1564E-01  5.7241E-03 -3.3699E+00  3.3954E+00
ac ID =   33377                -1.0410E+00  2.1323E+01  1.7759E-01  2.1349E+01
                               -3.6811E-01  1.4370E+01 -4.8272E+01  2.5147E+03

           1    1.12004E+01     4.1062E-01  1.4898E-03 -3.4387E+00  3.4631E+00
ac ID =   33377                -8.8959E-01  2.1927E+01  6.2278E-02  2.1945E+01
                               -3.6796E-01  1.4510E+01 -4.8275E+01  2.5147E+03

           1    1.13004E+01     4.3642E-01  1.9517E-03 -3.4897E+00  3.5168E+00
ac ID =   33377                -7.2054E-01  2.2792E+01 -2.7489E-01  2.2805E+01
                               -3.6786E-01  1.4650E+01 -4.8275E+01  2.5147E+03

           1    1.14004E+01     4.3492E-01  1.1119E-02 -3.5168E+00  3.5436E+00
ac ID =   33377                -9.1228E-01  2.3149E+01  1.1330E-01  2.3167E+01
                               -3.6774E-01  1.4791E+01 -4.8273E+01  2.5147E+03

           1    1.15003E+01     4.4661E-01 -6.0985E-03 -3.5791E+00  3.6069E+00
ac ID =   33377                -4.4840E-01  2.3909E+01  2.2587E-01  2.3914E+01
                               -3.6757E-01  1.4933E+01 -4.8267E+01  2.5147E+03

           1    1.16003E+01     4.4506E-01  2.6205E-03 -3.6590E+00  3.6860E+00
ac ID =   33377                -7.0522E-01  2.4818E+01  2.0380E-01  2.4829E+01
                               -3.6744E-01  1.5076E+01 -4.8258E+01  2.5147E+03

           1    1.17003E+01     4.6089E-01  1.7018E-02 -3.7461E+00  3.7744E+00
ac ID =   33377                -1.1809E+00  2.5661E+01  9.9311E-02  2.5689E+01
                               -3.6730E-01  1.5220E+01 -4.8245E+01  2.5147E+03

           1    1.18003E+01     4.6356E-01  6.2521E-03 -3.8082E+00  3.8363E+00
ac ID =   33377                -1.0746E+00  2.6464E+01 -1.4529E-01  2.6486E+01
                               -3.6712E-01  1.5365E+01 -4.8230E+01  2.5147E+03

           1    1.19003E+01     4.8247E-01 -6.5152E-03 -3.8606E+00  3.8906E+00
ac ID =   33377                -7.0691E-01  2.7283E+01 -6.8033E-02  2.7292E+01
                               -3.6694E-01  1.5510E+01 -4.8211E+01  2.5147E+03

           1    1.20003E+01     4.9384E-01  1.7410E-02 -3.9166E+00  3.9476E+00
ac ID =   33377                -1.2462E+00  2.8076E+01  5.9411E-02  2.8104E+01
                               -3.6683E-01  1.5655E+01 -4.8188E+01  2.5147E+03

           1    1.21003E+01     5.0078E-01  9.8204E-03 -3.9699E+00  4.0014E+00
ac ID =   33377                -1.0981E+00  2.8682E+01  2.7694E-01  2.8704E+01
                               -3.6661E-01  1.5801E+01 -4.8162E+01  2.5147E+03

           1    1.22003E+01     5.0211E-01 -6.9332E-03 -3.9934E+00  4.0248E+00
ac ID =   33377                -2.8853E-01  2.9156E+01  7.8696E-02  2.9158E+01
                               -3.6634E-01  1.5948E+01 -4.8132E+01  2.5147E+03

           1    1.23003E+01     5.0835E-01  1.5056E-03 -3.9997E+00  4.0319E+00
ac ID =   33377                -7.1033E-01  2.9559E+01 -4.4547E-02  2.9567E+01
                               -3.6605E-01  1.6094E+01 -4.8098E+01  2.5147E+03

           1    1.24003E+01     5.1466E-01  1.4406E-02 -4.0244E+00  4.0572E+00
ac ID =   33377                -9.1743E-01  2.9968E+01  1.9396E-01  2.9983E+01
                               -3.6569E-01  1.6241E+01 -4.8061E+01  2.5147E+03

           1    1.25002E+01     5.1280E-01 -1.0009E-02 -4.0618E+00  4.0940E+00
ac ID =   33377                -3.5974E-01  3.0419E+01  2.1386E-01  3.0422E+01
                               -3.6523E-01  1.6388E+01 -4.8019E+01  2.5147E+03

           1    1.26002E+01     5.2681E-01 -3.8472E-03 -4.0821E+00  4.1160E+00
ac ID =   33377                -8.6159E-01  3.1114E+01  1.3102E-01  3.1126E+01
                               -3.6474E-01  1.6535E+01 -4.7973E+01  2.5147E+03

           1    1.27002E+01     5.2648E-01  2.0938E-02 -4.0756E+00  4.1095E+00
ac ID =   33377                -1.2434E+00  3.1726E+01 -4.7989E-02  3.1751E+01
                               -3.6431E-01  1.6682E+01 -4.7924E+01  2.5147E+03

           1    1.28002E+01     5.4041E-01  1.9435E-03 -4.0789E+00  4.1146E+00
ac ID =   33377                -8.6487E-01  3.2461E+01  1.5690E-02  3.2473E+01
                               -3.6372E-01  1.6828E+01 -4.7870E+01  2.5147E+03

           1    1.29002E+01     5.4562E-01 -1.4529E-02 -4.0879E+00  4.1242E+00
ac ID =   33377                -5.0657E-01  3.3154E+01 -1.3998E-02  3.3158E+01
                               -3.6309E-01  1.6974E+01 -4.7812E+01  2.5147E+03

           1    1.30002E+01     5.3945E-01  6.3150E-03 -4.0654E+00  4.1010E+00
ac ID =   33377                -1.0057E+00  3.3123E+01  2.1624E-01  3.3139E+01
                               -3.6248E-01  1.7120E+01 -4.7750E+01  2.5147E+03

           1    1.31002E+01     5.5742E-01  1.0254E-02 -4.0516E+00  4.0898E+00
ac ID =   33377                -1.0601E+00  3.3646E+01 -9.0986E-02  3.3663E+01
                               -3.6184E-01  1.7266E+01 -4.7684E+01  2.5147E+03

           1    1.32002E+01     5.4739E-01 -1.6354E-02 -4.0398E+00  4.0768E+00
ac ID =   33377                -2.6377E-01  3.4009E+01 -6.5098E-02  3.4010E+01
                               -3.6113E-01  1.7412E+01 -4.7614E+01  2.5147E+03

           1    1.33002E+01     5.4613E-01  8.2130E-03 -4.0449E+00  4.0816E+00
ac ID =   33377                -1.0061E+00  3.4483E+01  1.2444E-01  3.4498E+01
                               -3.6040E-01  1.7557E+01 -4.7540E+01  2.5147E+03

           1    1.34002E+01     5.5653E-01  1.3808E-02 -4.0268E+00  4.0651E+00
ac ID =   33377                -1.1957E+00  3.4776E+01  7.7343E-02  3.4796E+01
                               -3.5970E-01  1.7702E+01 -4.7461E+01  2.5147E+03

           1    1.35001E+01     5.5893E-01  3.0922E-04 -4.0143E+00  4.0531E+00
ac ID =   33377                -1.0189E+00  3.5029E+01  2.5575E-01  3.5045E+01
                               -3.5891E-01  1.7846E+01 -4.7378E+01  2.5147E+03

           1    1.36001E+01     5.7048E-01  4.2775E-03 -4.0035E+00  4.0439E+00
ac ID =   33377                -8.2206E-01  3.5715E+01 -1.9959E-01  3.5725E+01
                               -3.5809E-01  1.7990E+01 -4.7292E+01  2.5147E+03

           1    1.37001E+01     5.6064E-01  1.7843E-02 -3.9514E+00  3.9910E+00
ac ID =   33377                -1.4590E+00  3.5393E+01 -2.6191E-01  3.5424E+01
                               -3.5725E-01  1.8133E+01 -4.7201E+01  2.5147E+03

           1    1.38001E+01     5.5506E-01  1.1572E-02 -3.9261E+00  3.9651E+00
ac ID =   33377                -1.0952E+00  3.5815E+01 -7.8850E-01  3.5840E+01
                               -3.5638E-01  1.8276E+01 -4.7106E+01  2.5147E+03

           1    1.39001E+01     5.6835E-01  2.2131E-04 -3.8861E+00  3.9274E+00
ac ID =   33377                -1.0338E+00  3.5815E+01 -8.5336E-01  3.5840E+01
                               -3.5541E-01  1.8419E+01 -4.7008E+01  2.5147E+03

           1    1.40001E+01     5.6969E-01  1.3177E-02 -3.8385E+00  3.8805E+00
ac ID =   33377                -1.3860E+00  3.5696E+01 -6.4646E-01  3.5729E+01
                               -3.5444E-01  1.8561E+01 -4.6905E+01  2.5147E+03

           1    1.41001E+01     5.4978E-01  1.9726E-02 -3.7679E+00  3.8079E+00
ac ID =   33377                -1.4047E+00  3.5593E+01 -2.7951E-01  3.5622E+01
                               -3.5347E-01  1.8703E+01 -4.6799E+01  2.5147E+03

           1    1.42001E+01     5.6292E-01  2.1156E-02 -3.7126E+00  3.7551E+00
ac ID =   33377                -1.4562E+00  3.5886E+01  1.2362E-02  3.5915E+01
                               -3.5238E-01  1.8845E+01 -4.6689E+01  2.5147E+03

           1    1.43001E+01     5.0073E-01  5.9469E-03 -3.5505E+00  3.5857E+00
ac ID =   33377                -1.4725E+00  3.5150E+01 -1.9467E-02  3.5181E+01
                               -3.5123E-01  1.8986E+01 -4.6576E+01  2.5147E+03

           1    1.44001E+01     5.6016E-01  2.3370E-02 -3.4805E+00  3.5254E+00
ac ID =   33377                -1.9336E+00  3.5325E+01 -2.1813E-01  3.5379E+01
                               -3.5011E-01  1.9127E+01 -4.6459E+01  2.5147E+03

           1    1.45000E+01     5.4235E-01  2.9001E-02 -3.5027E+00  3.5446E+00
ac ID =   33377                -2.1125E+00  3.5769E+01 -7.2405E-01  3.5839E+01
                               -3.4898E-01  1.9267E+01 -4.6338E+01  2.5147E+03

           1    1.46000E+01     4.9789E-01 -4.9503E-03 -3.3624E+00  3.3990E+00
ac ID =   33377                -1.7611E+00  3.4601E+01 -5.9535E-01  3.4651E+01
                               -3.4777E-01  1.9406E+01 -4.6214E+01  2.5147E+03

           1    1.47000E+01     5.0872E-01  2.8594E-02 -3.2974E+00  3.3365E+00
ac ID =   33377                -1.9402E+00  3.5411E+01  2.1935E-01  3.5465E+01
                               -3.4666E-01  1.9545E+01 -4.6087E+01  2.5147E+03

           1    1.48005E+01     5.1382E-01  1.2554E-02 -3.1876E+00  3.2288E+00
ac ID =   33377                -1.9723E+00  3.5074E+01  5.6616E-01  3.5134E+01
                               -3.4551E-01  1.9684E+01 -4.5956E+01  2.5147E+03

           1    1.49005E+01     5.2623E-01  1.3371E-02 -3.1369E+00  3.1808E+00
ac ID =   33377                -1.7570E+00  3.4539E+01 -1.2266E-01  3.4584E+01
                               -3.4443E-01  1.9821E+01 -4.5822E+01  2.5147E+03

           1    1.50005E+01     5.4319E-01 -1.6823E-02 -3.1117E+00  3.1588E+00
ac ID =   33377                -1.8294E+00  3.5223E+01 -6.9012E-01  3.5277E+01
                               -3.4327E-01  1.9958E+01 -4.5685E+01  2.5147E+03

           1    1.51005E+01     5.0115E-01  3.6497E-02 -2.9246E+00  2.9674E+00
ac ID =   33377                -2.1894E+00  3.3403E+01 -1.0655E-01  3.3475E+01
                               -3.4225E-01  2.0095E+01 -4.5545E+01  2.5147E+03

           1    1.52005E+01     5.2028E-01  1.7988E-02 -2.8640E+00  2.9110E+00
ac ID =   33377                -2.2708E+00  3.4069E+01  2.6510E-01  3.4146E+01
                               -3.4117E-01  2.0232E+01 -4.5404E+01  2.5147E+03

           1    1.53005E+01     5.1222E-01  9.4537E-03 -2.8381E+00  2.8840E+00
ac ID =   33377                -2.2508E+00  3.2841E+01  1.3377E-01  3.2919E+01
                               -3.4015E-01  2.0368E+01 -4.5259E+01  2.5147E+03

           1    1.54005E+01     4.9122E-01  3.9862E-02 -2.7416E+00  2.7855E+00
ac ID =   33377                -2.8459E+00  3.2771E+01 -4.1611E-01  3.2897E+01
                               -3.3918E-01  2.0504E+01 -4.5112E+01  2.5147E+03

           1    1.55004E+01     4.8604E-01  1.6238E-02 -2.6338E+00  2.6784E+00
ac ID =   33377                -2.7344E+00  3.2044E+01 -5.8165E-01  3.2166E+01
                               -3.3820E-01  2.0640E+01 -4.4963E+01  2.5147E+03

           1    1.56004E+01     5.2249E-01  1.6585E-02 -2.5394E+00  2.5926E+00
ac ID =   33377                -1.7685E+00  3.2110E+01 -1.2643E-01  3.2159E+01
                               -3.3733E-01  2.0776E+01 -4.4813E+01  2.5147E+03

           1    1.57004E+01     4.9439E-01  2.2037E-02 -2.4301E+00  2.4800E+00
ac ID =   33377                -2.7423E+00  3.1590E+01 -1.7965E-01  3.1710E+01
                               -3.3640E-01  2.0912E+01 -4.4660E+01  2.5147E+03

           1    1.58004E+01     4.7728E-01  2.3252E-02 -2.3774E+00  2.4250E+00
ac ID =   33377                -2.4585E+00  3.0364E+01 -1.0637E+00  3.0482E+01
                               -3.3563E-01  2.1049E+01 -4.4507E+01  2.5147E+03

           1    1.59004E+01     4.8092E-01  5.3691E-03 -2.2418E+00  2.2929E+00
ac ID =   33377                -2.1098E+00  3.0646E+01 -7.5740E-01  3.0728E+01
                               -3.3488E-01  2.1186E+01 -4.4352E+01  2.5147E+03

