 LSTC 50th% Full_FE H-III Dummy (Beta Version, February 17, 2019)        
                    ls-dyna smp s R16 R16.0_619_d222963 date 03/18/2025

{BEGIN LEGEND}
 Entity #        Title
    22626                                                                                     
{END LEGEND}




 n o d a l   p r i n t   o u t   f o r   t i m e  s t e p       1                              ( at time 0.0000000E+00 )

 nodal point  x-disp     y-disp      z-disp      x-vel       y-vel       z-vel      x-accl      y-accl      z-accl      x-coor      y-coor      z-coor
    22626  0.00000E+00 0.00000E+00 0.00000E+00 0.00000E+00 0.00000E+00-3.12000E+00 0.00000E+00 0.00000E+00 0.00000E+00 4.79642E+01-2.20298E+01 7.33850E+00



 n o d a l   p r i n t   o u t   f o r   t i m e  s t e p       1                              ( at time 0.0000000E+00 )

 nodal point  x-rot      y-rot       z-rot       x-rot vel   y-rot vel   z-rot vel   x-rot acc   y-rot acc   z-rot acc
    22626  0.00000E+00 0.00000E+00 0.00000E+00 0.00000E+00 0.00000E+00 0.00000E+00 0.00000E+00 0.00000E+00 0.00000E+00



 n o d a l   p r i n t   o u t   f o r   t i m e  s t e p     201                              ( at time 9.9989993E-02 )

 nodal point  x-disp     y-disp      z-disp      x-vel       y-vel       z-vel      x-accl      y-accl      z-accl      x-coor      y-coor      z-coor
    22626  8.34364E-07-4.04355E-06-3.12016E-01 4.76740E-05-4.96363E-04-3.12074E+00 4.76788E-04-4.96413E-03-7.42748E-03 4.79642E+01-2.20298E+01 7.02648E+00



 n o d a l   p r i n t   o u t   f o r   t i m e  s t e p     201                              ( at time 9.9989993E-02 )

 nodal point  x-rot      y-rot       z-rot       x-rot vel   y-rot vel   z-rot vel   x-rot acc   y-rot acc   z-rot acc
    22626  9.59343E-09 3.04080E-08 5.27126E-08 1.30610E-06 2.72373E-06 5.21384E-06 1.30623E-05 2.72401E-05 5.21436E-05



 n o d a l   p r i n t   o u t   f o r   t i m e  s t e p     401                              ( at time 1.9997999E-01 )

 nodal point  x-disp     y-disp      z-disp      x-vel       y-vel       z-vel      x-accl      y-accl      z-accl      x-coor      y-coor      z-coor
    22626 -5.12727E-05-5.21521E-04-6.23853E-01-1.09731E-03-1.11121E-02-3.11558E+00-1.14510E-02-1.06168E-01 5.16061E-02 4.79641E+01-2.20303E+01 6.71465E+00



 n o d a l   p r i n t   o u t   f o r   t i m e  s t e p     401                              ( at time 1.9997999E-01 )

 nodal point  x-rot      y-rot       z-rot       x-rot vel   y-rot vel   z-rot vel   x-rot acc   y-rot acc   z-rot acc
    22626  4.60222E-07 1.33022E-06 2.50292E-06 2.65630E-06 1.90530E-05 3.49508E-05 1.35034E-05 1.63309E-04 2.97399E-04



 n o d a l   p r i n t   o u t   f o r   t i m e  s t e p     601                              ( at time 2.9996998E-01 )

 nodal point  x-disp     y-disp      z-disp      x-vel       y-vel       z-vel      x-accl      y-accl      z-accl      x-coor      y-coor      z-coor
    22626 -2.45456E-05-1.97560E-03-9.35239E-01 1.66068E-03-1.60342E-02-3.11415E+00 2.75827E-02-4.92259E-02 1.42779E-02 4.79642E+01-2.20318E+01 6.40326E+00



 n o d a l   p r i n t   o u t   f o r   t i m e  s t e p     601                              ( at time 2.9996998E-01 )

 nodal point  x-rot      y-rot       z-rot       x-rot vel   y-rot vel   z-rot vel   x-rot acc   y-rot acc   z-rot acc
    22626  6.74485E-07 2.41636E-06 4.83583E-06 8.27074E-06 5.48966E-06 1.48867E-05 5.61500E-05-1.35647E-04-2.00661E-04



 n o d a l   p r i n t   o u t   f o r   t i m e  s t e p     801                              ( at time 3.9995997E-01 )

 nodal point  x-disp     y-disp      z-disp      x-vel       y-vel       z-vel      x-accl      y-accl      z-accl      x-coor      y-coor      z-coor
    22626  5.94513E-05-3.57175E-03-1.24663E+00 1.84719E-04-1.73759E-02-3.11354E+00-1.47611E-02-1.34185E-02 6.14466E-03 4.79642E+01-2.20334E+01 6.09187E+00



 n o d a l   p r i n t   o u t   f o r   t i m e  s t e p     801                              ( at time 3.9995997E-01 )

 nodal point  x-rot      y-rot       z-rot       x-rot vel   y-rot vel   z-rot vel   x-rot acc   y-rot acc   z-rot acc
    22626  1.58289E-06 3.68874E-06 6.69648E-06 6.34783E-06 2.42130E-05 3.82661E-05-1.92310E-05 1.87252E-04 2.33818E-04



 n o d a l   p r i n t   o u t   f o r   t i m e  s t e p    1001                              ( at time 4.9994997E-01 )

 nodal point  x-disp     y-disp      z-disp      x-vel       y-vel       z-vel      x-accl      y-accl      z-accl      x-coor      y-coor      z-coor
    22626  7.17040E-05-5.62720E-03-1.55783E+00 8.86037E-04-2.38181E-02-3.11087E+00 7.01388E-03-6.44286E-02 2.66817E-02 4.79643E+01-2.20354E+01 5.78067E+00



 n o d a l   p r i n t   o u t   f o r   t i m e  s t e p    1001                              ( at time 4.9994997E-01 )

 nodal point  x-rot      y-rot       z-rot       x-rot vel   y-rot vel   z-rot vel   x-rot acc   y-rot acc   z-rot acc
    22626  1.50056E-06 6.65969E-06 1.18591E-05-4.90409E-06 4.39491E-05 7.21206E-05-1.12530E-04 1.97381E-04 3.38579E-04



 n o d a l   p r i n t   o u t   f o r   t i m e  s t e p    1201                              ( at time 5.9993996E-01 )

 nodal point  x-disp     y-disp      z-disp      x-vel       y-vel       z-vel      x-accl      y-accl      z-accl      x-coor      y-coor      z-coor
    22626  5.25438E-05-8.12891E-03-1.86888E+00-5.44448E-04-2.60684E-02-3.11086E+00-1.43063E-02-2.25046E-02 1.04915E-04 4.79642E+01-2.20379E+01 5.46962E+00



 n o d a l   p r i n t   o u t   f o r   t i m e  s t e p    1201                              ( at time 5.9993996E-01 )

 nodal point  x-rot      y-rot       z-rot       x-rot vel   y-rot vel   z-rot vel   x-rot acc   y-rot acc   z-rot acc
    22626  1.26868E-06 9.91116E-06 1.78002E-05-2.07506E-06 2.65317E-05 5.34231E-05 2.82932E-05-1.74192E-04-1.86994E-04



 n o d a l   p r i n t   o u t   f o r   t i m e  s t e p    1401                              ( at time 6.9992995E-01 )

 nodal point  x-disp     y-disp      z-disp      x-vel       y-vel       z-vel      x-accl      y-accl      z-accl      x-coor      y-coor      z-coor
    22626  1.94430E-05-1.10081E-02-2.17977E+00 6.94787E-04-3.22035E-02-3.10773E+00 1.23936E-02-6.13574E-02 3.12813E-02 4.79642E+01-2.20408E+01 5.15873E+00



 n o d a l   p r i n t   o u t   f o r   t i m e  s t e p    1401                              ( at time 6.9992995E-01 )

 nodal point  x-rot      y-rot       z-rot       x-rot vel   y-rot vel   z-rot vel   x-rot acc   y-rot acc   z-rot acc
    22626  1.12731E-06 1.31167E-05 2.27984E-05-2.11608E-06 3.77550E-05 5.91472E-05-4.10196E-07 1.12245E-04 5.72467E-05



 n o d a l   p r i n t   o u t   f o r   t i m e  s t e p    1601                              ( at time 7.9991994E-01 )

 nodal point  x-disp     y-disp      z-disp      x-vel       y-vel       z-vel      x-accl      y-accl      z-accl      x-coor      y-coor      z-coor
    22626  1.30886E-04-1.45538E-02-2.49039E+00 1.35556E-03-3.67586E-02-3.10604E+00 6.60838E-03-4.55555E-02 1.68984E-02 4.79643E+01-2.20443E+01 4.84811E+00



 n o d a l   p r i n t   o u t   f o r   t i m e  s t e p    1601                              ( at time 7.9991994E-01 )

 nodal point  x-rot      y-rot       z-rot       x-rot vel   y-rot vel   z-rot vel   x-rot acc   y-rot acc   z-rot acc
    22626  1.06189E-06 1.72631E-05 2.97729E-05 3.20564E-06 4.89816E-05 7.66482E-05 5.32225E-05 1.12278E-04 1.75027E-04



 n o d a l   p r i n t   o u t   f o r   t i m e  s t e p    1801                              ( at time 8.9990994E-01 )

 nodal point  x-disp     y-disp      z-disp      x-vel       y-vel       z-vel      x-accl      y-accl      z-accl      x-coor      y-coor      z-coor
    22626  2.03960E-04-1.81908E-02-2.80105E+00-5.14610E-04-3.63690E-02-3.10746E+00-1.87036E-02 3.89593E-03-1.41683E-02 4.79644E+01-2.20480E+01 4.53745E+00



 n o d a l   p r i n t   o u t   f o r   t i m e  s t e p    1801                              ( at time 8.9990994E-01 )

 nodal point  x-rot      y-rot       z-rot       x-rot vel   y-rot vel   z-rot vel   x-rot acc   y-rot acc   z-rot acc
    22626  1.11468E-06 2.14020E-05 3.68053E-05-1.49230E-06 3.81505E-05 6.87348E-05-4.69841E-05-1.08323E-04-7.91410E-05



 n o d a l   p r i n t   o u t   f o r   t i m e  s t e p    2001                              ( at time 9.9989993E-01 )

 nodal point  x-disp     y-disp      z-disp      x-vel       y-vel       z-vel      x-accl      y-accl      z-accl      x-coor      y-coor      z-coor
    22626  1.05124E-04-2.18951E-02-3.11177E+00-8.34367E-04-3.82851E-02-3.10766E+00-3.19789E-03-1.91624E-02-1.96715E-03 4.79643E+01-2.20517E+01 4.22673E+00



 n o d a l   p r i n t   o u t   f o r   t i m e  s t e p    2001                              ( at time 9.9989993E-01 )

 nodal point  x-rot      y-rot       z-rot       x-rot vel   y-rot vel   z-rot vel   x-rot acc   y-rot acc   z-rot acc
    22626  9.92469E-07 2.56438E-05 4.40548E-05-3.61647E-07 4.65252E-05 8.65392E-05 1.13076E-05 8.37553E-05 1.78061E-04



 n o d a l   p r i n t   o u t   f o r   t i m e  s t e p    2201                              ( at time 1.0998899E+00 )

 nodal point  x-disp     y-disp      z-disp      x-vel       y-vel       z-vel      x-accl      y-accl      z-accl      x-coor      y-coor      z-coor
    22626  8.47944E-05-2.58327E-02-3.42249E+00-2.50546E-04-4.01832E-02-3.10716E+00 5.83879E-03-1.89827E-02 4.94530E-03 4.79643E+01-2.20556E+01 3.91601E+00



 n o d a l   p r i n t   o u t   f o r   t i m e  s t e p    2201                              ( at time 1.0998899E+00 )

 nodal point  x-rot      y-rot       z-rot       x-rot vel   y-rot vel   z-rot vel   x-rot acc   y-rot acc   z-rot acc
    22626  1.11468E-06 3.04502E-05 5.27310E-05 5.81391E-06 4.63929E-05 7.48753E-05 6.17618E-05-1.32232E-06-1.16651E-04



 n o d a l   p r i n t   o u t   f o r   t i m e  s t e p    2401                              ( at time 1.1998799E+00 )

 nodal point  x-disp     y-disp      z-disp      x-vel       y-vel       z-vel      x-accl      y-accl      z-accl      x-coor      y-coor      z-coor
    22626  1.24170E-04-2.98398E-02-3.73323E+00 7.09643E-04-3.96842E-02-3.10857E+00 9.60286E-03 4.99023E-03-1.40562E-02 4.79643E+01-2.20596E+01 3.60527E+00



 n o d a l   p r i n t   o u t   f o r   t i m e  s t e p    2401                              ( at time 1.1998799E+00 )

 nodal point  x-rot      y-rot       z-rot       x-rot vel   y-rot vel   z-rot vel   x-rot acc   y-rot acc   z-rot acc
    22626  1.56131E-06 3.46173E-05 5.96103E-05 5.62323E-06 4.01828E-05 6.61992E-05-1.90706E-06-6.21076E-05-8.67694E-05



 n o d a l   p r i n t   o u t   f o r   t i m e  s t e p    2601                              ( at time 1.2998699E+00 )

 nodal point  x-disp     y-disp      z-disp      x-vel       y-vel       z-vel      x-accl      y-accl      z-accl      x-coor      y-coor      z-coor
    22626  1.34539E-04-3.36675E-02-4.04417E+00-4.41107E-04-3.64845E-02-3.11141E+00-1.15087E-02 3.20006E-02-2.84319E-02 4.79643E+01-2.20635E+01 3.29433E+00



 n o d a l   p r i n t   o u t   f o r   t i m e  s t e p    2601                              ( at time 1.2998699E+00 )

 nodal point  x-rot      y-rot       z-rot       x-rot vel   y-rot vel   z-rot vel   x-rot acc   y-rot acc   z-rot acc
    22626  1.91547E-06 3.87363E-05 6.65004E-05-2.02737E-06 4.57747E-05 8.06583E-05-7.65136E-05 5.59245E-05 1.44606E-04



 n o d a l   p r i n t   o u t   f o r   t i m e  s t e p    2801                              ( at time 1.3998599E+00 )

 nodal point  x-disp     y-disp      z-disp      x-vel       y-vel       z-vel      x-accl      y-accl      z-accl      x-coor      y-coor      z-coor
    22626  1.74516E-05-3.70505E-02-4.35549E+00-1.33004E-03-3.13123E-02-3.11520E+00-8.89026E-03 5.17262E-02-3.78599E-02 4.79642E+01-2.20668E+01 2.98302E+00



 n o d a l   p r i n t   o u t   f o r   t i m e  s t e p    2801                              ( at time 1.3998599E+00 )

 nodal point  x-rot      y-rot       z-rot       x-rot vel   y-rot vel   z-rot vel   x-rot acc   y-rot acc   z-rot acc
    22626  1.55133E-06 4.31695E-05 7.44031E-05-4.04922E-06 4.50019E-05 7.39876E-05-2.02206E-05-7.72886E-06-6.67144E-05



 n o d a l   p r i n t   o u t   f o r   t i m e  s t e p    3001                              ( at time 1.4998499E+00 )

 nodal point  x-disp     y-disp      z-disp      x-vel       y-vel       z-vel      x-accl      y-accl      z-accl      x-coor      y-coor      z-coor
    22626 -9.35931E-05-4.00821E-02-4.66708E+00-4.87198E-04-2.96427E-02-3.11721E+00 8.42929E-03 1.66982E-02-2.00840E-02 4.79641E+01-2.20699E+01 2.67142E+00



 n o d a l   p r i n t   o u t   f o r   t i m e  s t e p    3001                              ( at time 1.4998499E+00 )

 nodal point  x-rot      y-rot       z-rot       x-rot vel   y-rot vel   z-rot vel   x-rot acc   y-rot acc   z-rot acc
    22626  1.22163E-06 4.71300E-05 8.10183E-05-9.91797E-07 3.23277E-05 5.79430E-05 3.05773E-05-1.26755E-04-1.60461E-04



 n o d a l   p r i n t   o u t   f o r   t i m e  s t e p    3201                              ( at time 1.5998399E+00 )

 nodal point  x-disp     y-disp      z-disp      x-vel       y-vel       z-vel      x-accl      y-accl      z-accl      x-coor      y-coor      z-coor
    22626 -1.43241E-04-4.29637E-02-4.97886E+00-7.58793E-04-2.74331E-02-3.11948E+00-2.71621E-03 2.20981E-02-2.27713E-02 4.79640E+01-2.20728E+01 2.35964E+00



 n o d a l   p r i n t   o u t   f o r   t i m e  s t e p    3201                              ( at time 1.5998399E+00 )

 nodal point  x-rot      y-rot       z-rot       x-rot vel   y-rot vel   z-rot vel   x-rot acc   y-rot acc   z-rot acc
    22626  9.81093E-07 5.01952E-05 8.59353E-05-7.38428E-07 3.24658E-05 4.82358E-05 2.53394E-06 1.38079E-06-9.70821E-05



 n o d a l   p r i n t   o u t   f o r   t i m e  s t e p    3401                              ( at time 1.6998299E+00 )

 nodal point  x-disp     y-disp      z-disp      x-vel       y-vel       z-vel      x-accl      y-accl      z-accl      x-coor      y-coor      z-coor
    22626 -2.32674E-04-4.54703E-02-5.29096E+00-1.13303E-03-2.23687E-02-3.12330E+00-3.74272E-03 5.06493E-02-3.81770E-02 4.79639E+01-2.20753E+01 2.04754E+00



 n o d a l   p r i n t   o u t   f o r   t i m e  s t e p    3401                              ( at time 1.6998299E+00 )

 nodal point  x-rot      y-rot       z-rot       x-rot vel   y-rot vel   z-rot vel   x-rot acc   y-rot acc   z-rot acc
    22626  8.17331E-07 5.33121E-05 9.10123E-05-3.56058E-06 3.05716E-05 4.85609E-05-2.82243E-05-1.89430E-05 3.25115E-06



 n o d a l   p r i n t   o u t   f o r   t i m e  s t e p    3601                              ( at time 1.7998199E+00 )

 nodal point  x-disp     y-disp      z-disp      x-vel       y-vel       z-vel      x-accl      y-accl      z-accl      x-coor      y-coor      z-coor
    22626 -3.34721E-04-4.74523E-02-5.60347E+00-1.34833E-03-1.76310E-02-3.12737E+00-2.15325E-03 4.73817E-02-4.07212E-02 4.79638E+01-2.20772E+01 1.73503E+00



 n o d a l   p r i n t   o u t   f o r   t i m e  s t e p    3601                              ( at time 1.7998199E+00 )

 nodal point  x-rot      y-rot       z-rot       x-rot vel   y-rot vel   z-rot vel   x-rot acc   y-rot acc   z-rot acc
    22626  7.09908E-07 5.61487E-05 9.58295E-05 1.54994E-07 2.16761E-05 4.26863E-05 3.71595E-05-8.89640E-05-5.87518E-05



 n o d a l   p r i n t   o u t   f o r   t i m e  s t e p    3801                              ( at time 1.8998099E+00 )

 nodal point  x-disp     y-disp      z-disp      x-vel       y-vel       z-vel      x-accl      y-accl      z-accl      x-coor      y-coor      z-coor
    22626 -5.23884E-04-4.90798E-02-5.91630E+00-2.15518E-03-1.50781E-02-3.12992E+00-8.06929E-03 2.55314E-02-2.55229E-02 4.79637E+01-2.20789E+01 1.42220E+00



 n o d a l   p r i n t   o u t   f o r   t i m e  s t e p    3801                              ( at time 1.8998099E+00 )

 nodal point  x-rot      y-rot       z-rot       x-rot vel   y-rot vel   z-rot vel   x-rot acc   y-rot acc   z-rot acc
    22626  5.24671E-07 5.80836E-05 9.93007E-05 2.08085E-06 1.60696E-05 2.81322E-05 1.92605E-05-5.60708E-05-1.45556E-04



 n o d a l   p r i n t   o u t   f o r   t i m e  s t e p    4001                              ( at time 1.9997999E+00 )

 nodal point  x-disp     y-disp      z-disp      x-vel       y-vel       z-vel      x-accl      y-accl      z-accl      x-coor      y-coor      z-coor
    22626 -6.96437E-04-5.04642E-02-6.22938E+00-1.64530E-03-1.27594E-02-3.13213E+00 5.09935E-03 2.31893E-02-2.20512E-02 4.79635E+01-2.20803E+01 1.10912E+00



 n o d a l   p r i n t   o u t   f o r   t i m e  s t e p    4001                              ( at time 1.9997999E+00 )

 nodal point  x-rot      y-rot       z-rot       x-rot vel   y-rot vel   z-rot vel   x-rot acc   y-rot acc   z-rot acc
    22626  7.63323E-07 5.94785E-05 1.01677E-04 3.84120E-06 1.35089E-05 2.01083E-05 1.76053E-05-2.56101E-05-8.02465E-05



 n o d a l   p r i n t   o u t   f o r   t i m e  s t e p    4201                              ( at time 2.0997899E+00 )

 nodal point  x-disp     y-disp      z-disp      x-vel       y-vel       z-vel      x-accl      y-accl      z-accl      x-coor      y-coor      z-coor
    22626 -8.66884E-04-5.15525E-02-6.54272E+00-1.88124E-03-9.11784E-03-3.13521E+00-2.35969E-03 3.64192E-02-3.08091E-02 4.79633E+01-2.20813E+01 7.95778E-01



 n o d a l   p r i n t   o u t   f o r   t i m e  s t e p    4201                              ( at time 2.0997899E+00 )

 nodal point  x-rot      y-rot       z-rot       x-rot vel   y-rot vel   z-rot vel   x-rot acc   y-rot acc   z-rot acc
    22626  1.08344E-06 6.01199E-05 1.02773E-04-9.06241E-07 3.49617E-06 1.73806E-06-4.74792E-05-1.00137E-04-1.83721E-04



 n o d a l   p r i n t   o u t   f o r   t i m e  s t e p    4401                              ( at time 2.1997798E+00 )

 nodal point  x-disp     y-disp      z-disp      x-vel       y-vel       z-vel      x-accl      y-accl      z-accl      x-coor      y-coor      z-coor
    22626 -1.10882E-03-5.22343E-02-6.85639E+00-2.73484E-03-4.33897E-03-3.13899E+00-8.53681E-03 4.77936E-02-3.77908E-02 4.79631E+01-2.20820E+01 4.82111E-01



 n o d a l   p r i n t   o u t   f o r   t i m e  s t e p    4401                              ( at time 2.1997798E+00 )

 nodal point  x-rot      y-rot       z-rot       x-rot vel   y-rot vel   z-rot vel   x-rot acc   y-rot acc   z-rot acc
    22626  9.38719E-07 6.01808E-05 1.02781E-04-1.11845E-06-1.30592E-06-2.05990E-06-2.12234E-06-4.80258E-05-3.79834E-05



 n o d a l   p r i n t   o u t   f o r   t i m e  s t e p    4601                              ( at time 2.2997698E+00 )

 nodal point  x-disp     y-disp      z-disp      x-vel       y-vel       z-vel      x-accl      y-accl      z-accl      x-coor      y-coor      z-coor
    22626 -1.41532E-03-5.24231E-02-7.17044E+00-3.49273E-03-4.98769E-05-3.14233E+00-7.57966E-03 4.28951E-02-3.34510E-02 4.79628E+01-2.20822E+01 1.68057E-01



 n o d a l   p r i n t   o u t   f o r   t i m e  s t e p    4601                              ( at time 2.2997698E+00 )

 nodal point  x-rot      y-rot       z-rot       x-rot vel   y-rot vel   z-rot vel   x-rot acc   y-rot acc   z-rot acc
    22626  5.61711E-07 5.99233E-05 1.02473E-04-4.37963E-06-9.27668E-06-1.23800E-05-3.26150E-05-7.97155E-05-1.03211E-04



 n o d a l   p r i n t   o u t   f o r   t i m e  s t e p    4801                              ( at time 2.3997598E+00 )

 nodal point  x-disp     y-disp      z-disp      x-vel       y-vel       z-vel      x-accl      y-accl      z-accl      x-coor      y-coor      z-coor
    22626 -1.78355E-03-5.23314E-02-7.48475E+00-3.57850E-03 1.87753E-03-3.14442E+00-8.57802E-04 1.92760E-02-2.08566E-02 4.79624E+01-2.20821E+01-1.46246E-01



 n o d a l   p r i n t   o u t   f o r   t i m e  s t e p    4801                              ( at time 2.3997598E+00 )

 nodal point  x-rot      y-rot       z-rot       x-rot vel   y-rot vel   z-rot vel   x-rot acc   y-rot acc   z-rot acc
    22626  6.54641E-08 5.86774E-05 1.00008E-04-5.39915E-06-1.55441E-05-3.31270E-05-1.01962E-05-6.26807E-05-2.07491E-04



 n o d a l   p r i n t   o u t   f o r   t i m e  s t e p    5001                              ( at time 2.4997498E+00 )

 nodal point  x-disp     y-disp      z-disp      x-vel       y-vel       z-vel      x-accl      y-accl      z-accl      x-coor      y-coor      z-coor
    22626 -2.17517E-03-5.20254E-02-7.79927E+00-4.25652E-03 4.94538E-03-3.14713E+00-6.78089E-03 3.06815E-02-2.70942E-02 4.79620E+01-2.20818E+01-4.60774E-01



 n o d a l   p r i n t   o u t   f o r   t i m e  s t e p    5001                              ( at time 2.4997498E+00 )

 nodal point  x-rot      y-rot       z-rot       x-rot vel   y-rot vel   z-rot vel   x-rot acc   y-rot acc   z-rot acc
    22626 -3.26422E-07 5.64782E-05 9.60629E-05-3.47789E-06-2.64385E-05-4.86164E-05 1.92144E-05-1.08954E-04-1.54910E-04



 n o d a l   p r i n t   o u t   f o r   t i m e  s t e p    5201                              ( at time 2.5997398E+00 )

 nodal point  x-disp     y-disp      z-disp      x-vel       y-vel       z-vel      x-accl      y-accl      z-accl      x-coor      y-coor      z-coor
    22626 -2.64856E-03-5.13076E-02-8.11414E+00-5.23371E-03 9.36339E-03-3.15078E+00-9.77291E-03 4.41846E-02-3.65246E-02 4.79615E+01-2.20811E+01-7.75643E-01



 n o d a l   p r i n t   o u t   f o r   t i m e  s t e p    5201                              ( at time 2.5997398E+00 )

 nodal point  x-rot      y-rot       z-rot       x-rot vel   y-rot vel   z-rot vel   x-rot acc   y-rot acc   z-rot acc
    22626 -6.50535E-07 5.34200E-05 9.06958E-05-4.24888E-06-3.51943E-05-6.15353E-05-7.71062E-06-8.75672E-05-1.29202E-04



 n o d a l   p r i n t   o u t   f o r   t i m e  s t e p    5401                              ( at time 2.6997298E+00 )

 nodal point  x-disp     y-disp      z-disp      x-vel       y-vel       z-vel      x-accl      y-accl      z-accl      x-coor      y-coor      z-coor
    22626 -3.21622E-03-5.01657E-02-8.42937E+00-6.38897E-03 1.30013E-02-3.15420E+00-1.15537E-02 3.63826E-02-3.42284E-02 4.79610E+01-2.20800E+01-1.09087E+00



 n o d a l   p r i n t   o u t   f o r   t i m e  s t e p    5401                              ( at time 2.6997298E+00 )

 nodal point  x-rot      y-rot       z-rot       x-rot vel   y-rot vel   z-rot vel   x-rot acc   y-rot acc   z-rot acc
    22626 -9.35736E-07 4.97375E-05 8.42564E-05-1.66401E-06-4.09767E-05-6.66155E-05 2.58512E-05-5.78295E-05-5.08065E-05



 n o d a l   p r i n t   o u t   f o r   t i m e  s t e p    5601                              ( at time 2.7997198E+00 )

 nodal point  x-disp     y-disp      z-disp      x-vel       y-vel       z-vel      x-accl      y-accl      z-accl      x-coor      y-coor      z-coor
    22626 -3.92575E-03-4.87409E-02-8.74487E+00-7.62222E-03 1.51779E-02-3.15640E+00-1.23337E-02 2.17687E-02-2.19391E-02 4.79603E+01-2.20785E+01-1.40637E+00



 n o d a l   p r i n t   o u t   f o r   t i m e  s t e p    5601                              ( at time 2.7997198E+00 )

 nodal point  x-rot      y-rot       z-rot       x-rot vel   y-rot vel   z-rot vel   x-rot acc   y-rot acc   z-rot acc
    22626 -1.03161E-06 4.48846E-05 7.61990E-05 7.64808E-07-5.69494E-05-9.77042E-05 2.42907E-05-1.59743E-04-3.10919E-04



 n o d a l   p r i n t   o u t   f o r   t i m e  s t e p    5801                              ( at time 2.8997098E+00 )

 nodal point  x-disp     y-disp      z-disp      x-vel       y-vel       z-vel      x-accl      y-accl      z-accl      x-coor      y-coor      z-coor
    22626 -4.69219E-03-4.71690E-02-9.06057E+00-7.80848E-03 1.61637E-02-3.15807E+00-1.86286E-03 9.85878E-03-1.67816E-02 4.79595E+01-2.20770E+01-1.72207E+00



 n o d a l   p r i n t   o u t   f o r   t i m e  s t e p    5801                              ( at time 2.8997098E+00 )

 nodal point  x-rot      y-rot       z-rot       x-rot vel   y-rot vel   z-rot vel   x-rot acc   y-rot acc   z-rot acc
    22626 -8.00133E-07 3.85094E-05 6.53645E-05 2.45847E-06-6.64394E-05-1.15327E-04 1.69383E-05-9.49097E-05-1.76246E-04



 n o d a l   p r i n t   o u t   f o r   t i m e  s t e p    6001                              ( at time 2.9996998E+00 )

 nodal point  x-disp     y-disp      z-disp      x-vel       y-vel       z-vel      x-accl      y-accl      z-accl      x-coor      y-coor      z-coor
    22626 -5.51321E-03-4.54379E-02-9.37645E+00-8.85246E-03 1.86395E-02-3.16042E+00-1.04408E-02 2.47603E-02-2.34937E-02 4.79587E+01-2.20752E+01-2.03795E+00



 n o d a l   p r i n t   o u t   f o r   t i m e  s t e p    6001                              ( at time 2.9996998E+00 )

 nodal point  x-rot      y-rot       z-rot       x-rot vel   y-rot vel   z-rot vel   x-rot acc   y-rot acc   z-rot acc
    22626 -5.44525E-07 3.16525E-05 5.37896E-05 8.62402E-07-7.08005E-05-1.20923E-04-1.59623E-05-4.36156E-05-5.59648E-05



 n o d a l   p r i n t   o u t   f o r   t i m e  s t e p    6201                              ( at time 3.0996898E+00 )

 nodal point  x-disp     y-disp      z-disp      x-vel       y-vel       z-vel      x-accl      y-accl      z-accl      x-coor      y-coor      z-coor
    22626 -6.47551E-03-4.34509E-02-9.69258E+00-1.03284E-02 2.06535E-02-3.16243E+00-1.47613E-02 2.01416E-02-2.00864E-02 4.79577E+01-2.20732E+01-2.35408E+00



 n o d a l   p r i n t   o u t   f o r   t i m e  s t e p    6201                              ( at time 3.0996898E+00 )

 nodal point  x-rot      y-rot       z-rot       x-rot vel   y-rot vel   z-rot vel   x-rot acc   y-rot acc   z-rot acc
    22626 -5.83833E-07 2.43768E-05 4.12758E-05-1.96589E-06-7.45719E-05-1.31935E-04-2.82858E-05-3.77175E-05-1.10129E-04



 n o d a l   p r i n t   o u t   f o r   t i m e  s t e p    6401                              ( at time 3.1996798E+00 )

 nodal point  x-disp     y-disp      z-disp      x-vel       y-vel       z-vel      x-accl      y-accl      z-accl      x-coor      y-coor      z-coor
    22626 -7.54077E-03-4.14150E-02-1.00088E+01-1.09082E-02 1.97677E-02-3.16302E+00-5.79833E-03-8.85842E-03-5.91336E-03 4.79566E+01-2.20712E+01-2.67033E+00



 n o d a l   p r i n t   o u t   f o r   t i m e  s t e p    6401                              ( at time 3.1996798E+00 )

 nodal point  x-rot      y-rot       z-rot       x-rot vel   y-rot vel   z-rot vel   x-rot acc   y-rot acc   z-rot acc
    22626 -7.11840E-07 1.63598E-05 2.77483E-05-1.23998E-06-8.55708E-05-1.43983E-04 7.25981E-06-1.10000E-04-1.20498E-04



 n o d a l   p r i n t   o u t   f o r   t i m e  s t e p    6601                              ( at time 3.2996698E+00 )

 nodal point  x-disp     y-disp      z-disp      x-vel       y-vel       z-vel      x-accl      y-accl      z-accl      x-coor      y-coor      z-coor
    22626 -8.64451E-03-3.95350E-02-1.03251E+01-1.11332E-02 1.78244E-02-3.16270E+00-2.25053E-03-1.94350E-02 3.19275E-03 4.79555E+01-2.20693E+01-2.98658E+00



 n o d a l   p r i n t   o u t   f o r   t i m e  s t e p    6601                              ( at time 3.2996698E+00 )

 nodal point  x-rot      y-rot       z-rot       x-rot vel   y-rot vel   z-rot vel   x-rot acc   y-rot acc   z-rot acc
    22626 -9.61533E-07 7.67059E-06 1.30042E-05-2.68545E-06-8.86564E-05-1.50568E-04-1.44561E-05-3.08588E-05-6.58571E-05



 n o d a l   p r i n t   o u t   f o r   t i m e  s t e p    6801                              ( at time 3.3996598E+00 )

 nodal point  x-disp     y-disp      z-disp      x-vel       y-vel       z-vel      x-accl      y-accl      z-accl      x-coor      y-coor      z-coor
    22626 -9.78641E-03-3.78417E-02-1.06413E+01-1.16329E-02 1.60540E-02-3.16262E+00-4.99698E-03-1.77060E-02 8.51238E-04 4.79544E+01-2.20676E+01-3.30282E+00



 n o d a l   p r i n t   o u t   f o r   t i m e  s t e p    6801                              ( at time 3.3996598E+00 )

 nodal point  x-rot      y-rot       z-rot       x-rot vel   y-rot vel   z-rot vel   x-rot acc   y-rot acc   z-rot acc
    22626 -1.02184E-06-1.13912E-06-2.18818E-06-2.50461E-06-8.78679E-05-1.52822E-04 1.80856E-06 7.88581E-06-2.25338E-05



 n o d a l   p r i n t   o u t   f o r   t i m e  s t e p    7001                              ( at time 3.4996498E+00 )

 nodal point  x-disp     y-disp      z-disp      x-vel       y-vel       z-vel      x-accl      y-accl      z-accl      x-coor      y-coor      z-coor
    22626 -1.09837E-02-3.63071E-02-1.09576E+01-1.23335E-02 1.46192E-02-3.16291E+00-7.00721E-03-1.43492E-02-2.95907E-03 4.79532E+01-2.20661E+01-3.61907E+00



 n o d a l   p r i n t   o u t   f o r   t i m e  s t e p    7001                              ( at time 3.4996498E+00 )

 nodal point  x-rot      y-rot       z-rot       x-rot vel   y-rot vel   z-rot vel   x-rot acc   y-rot acc   z-rot acc
    22626 -9.77618E-07-9.79418E-06-1.69755E-05 7.68853E-07-8.70778E-05-1.47057E-04 3.27379E-05 7.90132E-06 5.76544E-05



 n o d a l   p r i n t   o u t   f o r   t i m e  s t e p    7201                              ( at time 3.5996397E+00 )

 nodal point  x-disp     y-disp      z-disp      x-vel       y-vel       z-vel      x-accl      y-accl      z-accl      x-coor      y-coor      z-coor
    22626 -1.22339E-02-3.49543E-02-1.12738E+01-1.23409E-02 1.20913E-02-3.16260E+00-7.36471E-05-2.52813E-02 3.14267E-03 4.79519E+01-2.20647E+01-3.93532E+00



 n o d a l   p r i n t   o u t   f o r   t i m e  s t e p    7201                              ( at time 3.5996397E+00 )

 nodal point  x-rot      y-rot       z-rot       x-rot vel   y-rot vel   z-rot vel   x-rot acc   y-rot acc   z-rot acc
    22626 -1.02557E-06-1.83317E-05-3.13364E-05 1.75920E-06-8.36509E-05-1.37569E-04 9.90448E-06 3.42726E-05 9.48913E-05



 n o d a l   p r i n t   o u t   f o r   t i m e  s t e p    7401                              ( at time 3.6996297E+00 )

 nodal point  x-disp     y-disp      z-disp      x-vel       y-vel       z-vel      x-accl      y-accl      z-accl      x-coor      y-coor      z-coor
    22626 -1.34557E-02-3.39130E-02-1.15900E+01-1.20552E-02 8.74757E-03-3.16163E+00 2.85750E-03-3.34409E-02 9.68075E-03 4.79507E+01-2.20637E+01-4.25150E+00



 n o d a l   p r i n t   o u t   f o r   t i m e  s t e p    7401                              ( at time 3.6996297E+00 )

 nodal point  x-rot      y-rot       z-rot       x-rot vel   y-rot vel   z-rot vel   x-rot acc   y-rot acc   z-rot acc
    22626 -7.40252E-07-2.65888E-05-4.50772E-05 4.20508E-06-8.12428E-05-1.36343E-04 2.44612E-05 2.40833E-05 1.22608E-05



 n o d a l   p r i n t   o u t   f o r   t i m e  s t e p    7601                              ( at time 3.7996197E+00 )

 nodal point  x-disp     y-disp      z-disp      x-vel       y-vel       z-vel      x-accl      y-accl      z-accl      x-coor      y-coor      z-coor
    22626 -1.46351E-02-3.31699E-02-1.19061E+01-1.15744E-02 6.09538E-03-3.16094E+00 4.80828E-03-2.65246E-02 6.94107E-03 4.79495E+01-2.20630E+01-4.56759E+00



 n o d a l   p r i n t   o u t   f o r   t i m e  s t e p    7601                              ( at time 3.7996197E+00 )

 nodal point  x-rot      y-rot       z-rot       x-rot vel   y-rot vel   z-rot vel   x-rot acc   y-rot acc   z-rot acc
    22626 -2.55575E-07-3.43713E-05-5.82851E-05 5.31402E-06-7.17776E-05-1.21105E-04 1.10905E-05 9.46616E-05 1.52391E-04



 n o d a l   p r i n t   o u t   f o r   t i m e  s t e p    7801                              ( at time 3.8996097E+00 )

 nodal point  x-disp     y-disp      z-disp      x-vel       y-vel       z-vel      x-accl      y-accl      z-accl      x-coor      y-coor      z-coor
    22626 -1.57609E-02-3.26663E-02-1.22221E+01-1.09298E-02 4.25076E-03-3.16087E+00 6.44672E-03-1.84480E-02 7.12942E-04 4.79484E+01-2.20625E+01-4.88365E+00



 n o d a l   p r i n t   o u t   f o r   t i m e  s t e p    7801                              ( at time 3.8996097E+00 )

 nodal point  x-rot      y-rot       z-rot       x-rot vel   y-rot vel   z-rot vel   x-rot acc   y-rot acc   z-rot acc
    22626  1.35945E-07-4.09354E-05-6.93434E-05 1.20002E-06-5.73387E-05-9.53287E-05-4.11440E-05 1.44403E-04 2.57789E-04



 n o d a l   p r i n t   o u t   f o r   t i m e  s t e p    8001                              ( at time 3.9995997E+00 )

 nodal point  x-disp     y-disp      z-disp      x-vel       y-vel       z-vel      x-accl      y-accl      z-accl      x-coor      y-coor      z-coor
    22626 -1.68254E-02-3.22855E-02-1.25382E+01-1.03556E-02 3.27404E-03-3.16119E+00 5.74287E-03-9.76823E-03-3.19513E-03 4.79474E+01-2.20621E+01-5.19972E+00



 n o d a l   p r i n t   o u t   f o r   t i m e  s t e p    8001                              ( at time 3.9995997E+00 )

 nodal point  x-rot      y-rot       z-rot       x-rot vel   y-rot vel   z-rot vel   x-rot acc   y-rot acc   z-rot acc
    22626  2.95321E-07-4.61276E-05-7.79368E-05-1.05149E-07-4.56793E-05-7.87170E-05-1.30530E-05 1.16606E-04 1.66134E-04



 n o d a l   p r i n t   o u t   f o r   t i m e  s t e p    8201                              ( at time 4.0995897E+00 )

 nodal point  x-disp     y-disp      z-disp      x-vel       y-vel       z-vel      x-accl      y-accl      z-accl      x-coor      y-coor      z-coor
    22626 -1.77768E-02-3.20781E-02-1.28543E+01-8.54806E-03 7.03565E-04-3.16073E+00 1.80769E-02-2.57072E-02 4.55186E-03 4.79464E+01-2.20619E+01-5.51579E+00



 n o d a l   p r i n t   o u t   f o r   t i m e  s t e p    8201                              ( at time 4.0995897E+00 )

 nodal point  x-rot      y-rot       z-rot       x-rot vel   y-rot vel   z-rot vel   x-rot acc   y-rot acc   z-rot acc
    22626  3.17582E-07-5.01991E-05-8.48103E-05-1.99082E-07-3.17868E-05-5.56789E-05-9.39425E-07 1.38938E-04 2.30404E-04



 n o d a l   p r i n t   o u t   f o r   t i m e  s t e p    8401                              ( at time 4.1995797E+00 )

 nodal point  x-disp     y-disp      z-disp      x-vel       y-vel       z-vel      x-accl      y-accl      z-accl      x-coor      y-coor      z-coor
    22626 -1.85508E-02-3.21178E-02-1.31703E+01-6.93936E-03-1.38461E-03-3.16041E+00 1.60886E-02-2.08839E-02 3.25474E-03 4.79456E+01-2.20619E+01-5.83181E+00



 n o d a l   p r i n t   o u t   f o r   t i m e  s t e p    8401                              ( at time 4.1995797E+00 )

 nodal point  x-rot      y-rot       z-rot       x-rot vel   y-rot vel   z-rot vel   x-rot acc   y-rot acc   z-rot acc
    22626  2.03758E-07-5.24031E-05-8.85464E-05-3.20474E-06-1.18175E-05-1.84743E-05-3.00596E-05 1.99713E-04 3.72084E-04



 n o d a l   p r i n t   o u t   f o r   t i m e  s t e p    8601                              ( at time 4.2995697E+00 )

 nodal point  x-disp     y-disp      z-disp      x-vel       y-vel       z-vel      x-accl      y-accl      z-accl      x-coor      y-coor      z-coor
    22626 -1.91543E-02-3.23819E-02-1.34863E+01-5.08132E-03-3.63066E-03-3.15854E+00 1.85823E-02-2.24628E-02 1.86987E-02 4.79450E+01-2.20622E+01-6.14775E+00



 n o d a l   p r i n t   o u t   f o r   t i m e  s t e p    8601                              ( at time 4.2995697E+00 )

 nodal point  x-rot      y-rot       z-rot       x-rot vel   y-rot vel   z-rot vel   x-rot acc   y-rot acc   z-rot acc
    22626 -9.32844E-07-5.21438E-05-8.81113E-05-1.97035E-05 2.11043E-05 2.36209E-05-1.65004E-04 3.29252E-04 4.20994E-04



 n o d a l   p r i n t   o u t   f o r   t i m e  s t e p    8801                              ( at time 4.3995597E+00 )

 nodal point  x-disp     y-disp      z-disp      x-vel       y-vel       z-vel      x-accl      y-accl      z-accl      x-coor      y-coor      z-coor
    22626 -1.95860E-02-3.26817E-02-1.38019E+01-3.31689E-03-2.37550E-03-3.15563E+00 1.76461E-02 1.25529E-02 2.90757E-02 4.79446E+01-2.20625E+01-6.46342E+00



 n o d a l   p r i n t   o u t   f o r   t i m e  s t e p    8801                              ( at time 4.3995597E+00 )

 nodal point  x-rot      y-rot       z-rot       x-rot vel   y-rot vel   z-rot vel   x-rot acc   y-rot acc   z-rot acc
    22626 -1.83972E-06-4.80295E-05-8.48764E-05 7.51662E-06 6.65908E-05 4.87204E-05 2.72228E-04 4.54910E-04 2.51021E-04



 n o d a l   p r i n t   o u t   f o r   t i m e  s t e p    9001                              ( at time 4.4995497E+00 )

 nodal point  x-disp     y-disp      z-disp      x-vel       y-vel       z-vel      x-accl      y-accl      z-accl      x-coor      y-coor      z-coor
    22626 -1.98199E-02-3.29763E-02-1.41169E+01-1.44332E-03-3.38573E-03-3.14352E+00 1.87375E-02-1.01032E-02 1.21081E-01 4.79444E+01-2.20628E+01-6.77843E+00



 n o d a l   p r i n t   o u t   f o r   t i m e  s t e p    9001                              ( at time 4.4995497E+00 )

 nodal point  x-rot      y-rot       z-rot       x-rot vel   y-rot vel   z-rot vel   x-rot acc   y-rot acc   z-rot acc
    22626 -1.99193E-06-3.52683E-05-7.76133E-05-3.02659E-06 1.92724E-04 8.14090E-05-1.05442E-04 1.26145E-03 3.26917E-04



 n o d a l   p r i n t   o u t   f o r   t i m e  s t e p    9201                              ( at time 4.5995397E+00 )

 nodal point  x-disp     y-disp      z-disp      x-vel       y-vel       z-vel      x-accl      y-accl      z-accl      x-coor      y-coor      z-coor
    22626 -1.98617E-02-3.32623E-02-1.44305E+01 8.57966E-04-1.48493E-03-3.12747E+00 2.30152E-02 1.90099E-02 1.60555E-01 4.79443E+01-2.20631E+01-7.09199E+00



 n o d a l   p r i n t   o u t   f o r   t i m e  s t e p    9201                              ( at time 4.5995397E+00 )

 nodal point  x-rot      y-rot       z-rot       x-rot vel   y-rot vel   z-rot vel   x-rot acc   y-rot acc   z-rot acc
    22626  2.97581E-06-8.69970E-06-7.07458E-05 1.10810E-04 3.44274E-04 6.94408E-05 1.13848E-03 1.51566E-03-1.19693E-04



 n o d a l   p r i n t   o u t   f o r   t i m e  s t e p    9401                              ( at time 4.6995297E+00 )

 nodal point  x-disp     y-disp      z-disp      x-vel       y-vel       z-vel      x-accl      y-accl      z-accl      x-coor      y-coor      z-coor
    22626 -1.96220E-02-3.33065E-02-1.47421E+01 4.00175E-03 5.68902E-04-3.10270E+00 3.14410E-02 2.05404E-02 2.47742E-01 4.79446E+01-2.20631E+01-7.40355E+00



 n o d a l   p r i n t   o u t   f o r   t i m e  s t e p    9401                              ( at time 4.6995297E+00 )

 nodal point  x-rot      y-rot       z-rot       x-rot vel   y-rot vel   z-rot vel   x-rot acc   y-rot acc   z-rot acc
    22626  1.73625E-05 3.63262E-05-6.30796E-05 1.64349E-04 5.60897E-04 8.46025E-05 5.35445E-04 2.16645E-03 1.51632E-04



 n o d a l   p r i n t   o u t   f o r   t i m e  s t e p    9601                              ( at time 4.7995197E+00 )

 nodal point  x-disp     y-disp      z-disp      x-vel       y-vel       z-vel      x-accl      y-accl      z-accl      x-coor      y-coor      z-coor
    22626 -1.89889E-02-3.31640E-02-1.50509E+01 8.15548E-03 2.94570E-03-3.07467E+00 4.15415E-02 2.37704E-02 2.80292E-01 4.79452E+01-2.20630E+01-7.71245E+00



 n o d a l   p r i n t   o u t   f o r   t i m e  s t e p    9601                              ( at time 4.7995197E+00 )

 nodal point  x-rot      y-rot       z-rot       x-rot vel   y-rot vel   z-rot vel   x-rot acc   y-rot acc   z-rot acc
    22626  3.97187E-05 1.04197E-04-5.54595E-05 2.86792E-04 8.04659E-04 7.21311E-05 1.22455E-03 2.43786E-03-1.24727E-04



 n o d a l   p r i n t   o u t   f o r   t i m e  s t e p    9801                              ( at time 4.8995097E+00 )

 nodal point  x-disp     y-disp      z-disp      x-vel       y-vel       z-vel      x-accl      y-accl      z-accl      x-coor      y-coor      z-coor
    22626 -1.80225E-02-3.27150E-02-1.53566E+01 1.12450E-02 6.59243E-03-3.03872E+00 3.08983E-02 3.64709E-02 3.59579E-01 4.79462E+01-2.20625E+01-8.01814E+00



 n o d a l   p r i n t   o u t   f o r   t i m e  s t e p    9801                              ( at time 4.8995097E+00 )

 nodal point  x-rot      y-rot       z-rot       x-rot vel   y-rot vel   z-rot vel   x-rot acc   y-rot acc   z-rot acc
    22626  7.28207E-05 1.96535E-04-4.91849E-05 3.92741E-04 1.05343E-03 5.05916E-05 1.05959E-03 2.48800E-03-2.15417E-04



 n o d a l   p r i n t   o u t   f o r   t i m e  s t e p   10001                              ( at time 4.9994997E+00 )

 nodal point  x-disp     y-disp      z-disp      x-vel       y-vel       z-vel      x-accl      y-accl      z-accl      x-coor      y-coor      z-coor
    22626 -1.66819E-02-3.17855E-02-1.56584E+01 1.51853E-02 1.12940E-02-2.99699E+00 3.94071E-02 4.70203E-02 4.17244E-01 4.79475E+01-2.20616E+01-8.31990E+00



 n o d a l   p r i n t   o u t   f o r   t i m e  s t e p   10001                              ( at time 4.9994997E+00 )

 nodal point  x-rot      y-rot       z-rot       x-rot vel   y-rot vel   z-rot vel   x-rot acc   y-rot acc   z-rot acc
    22626  1.21260E-04 3.19363E-04-4.62873E-05 5.92673E-04 1.40292E-03 1.97849E-05 1.99952E-03 3.49523E-03-3.08096E-04



 n o d a l   p r i n t   o u t   f o r   t i m e  s t e p   10202                              ( at time 5.0999896E+00 )

 nodal point  x-disp     y-disp      z-disp      x-vel       y-vel       z-vel      x-accl      y-accl      z-accl      x-coor      y-coor      z-coor
    22626 -1.49231E-02-3.04787E-02-1.59574E+01 2.00270E-02 1.37220E-02-2.95214E+00 4.81811E-02 2.41613E-02 4.46406E-01 4.79493E+01-2.20603E+01-8.61885E+00



 n o d a l   p r i n t   o u t   f o r   t i m e  s t e p   10202                              ( at time 5.0999896E+00 )

 nodal point  x-rot      y-rot       z-rot       x-rot vel   y-rot vel   z-rot vel   x-rot acc   y-rot acc   z-rot acc
    22626  1.87875E-04 4.75442E-04-4.66685E-05 7.36042E-04 1.72056E-03-1.58325E-05 1.42670E-03 3.16090E-03-3.54439E-04



 n o d a l   p r i n t   o u t   f o r   t i m e  s t e p   10402                              ( at time 5.1999796E+00 )

 nodal point  x-disp     y-disp      z-disp      x-vel       y-vel       z-vel      x-accl      y-accl      z-accl      x-coor      y-coor      z-coor
    22626 -1.26832E-02-2.89321E-02-1.62503E+01 2.44513E-02 1.91856E-02-2.90737E+00 4.42467E-02 5.46419E-02 4.47741E-01 4.79515E+01-2.20587E+01-8.91179E+00



 n o d a l   p r i n t   o u t   f o r   t i m e  s t e p   10402                              ( at time 5.1999796E+00 )

 nodal point  x-rot      y-rot       z-rot       x-rot vel   y-rot vel   z-rot vel   x-rot acc   y-rot acc   z-rot acc
    22626  2.69855E-04 6.64094E-04-5.13762E-05 9.36154E-04 2.04971E-03-7.63988E-05 2.00131E-03 3.29177E-03-6.05721E-04



 n o d a l   p r i n t   o u t   f o r   t i m e  s t e p   10602                              ( at time 5.2999696E+00 )

 nodal point  x-disp     y-disp      z-disp      x-vel       y-vel       z-vel      x-accl      y-accl      z-accl      x-coor      y-coor      z-coor
    22626 -1.00147E-02-2.65170E-02-1.65389E+01 2.96806E-02 2.82580E-02-2.86541E+00 5.22992E-02 9.07332E-02 4.19609E-01 4.79542E+01-2.20563E+01-9.20038E+00



 n o d a l   p r i n t   o u t   f o r   t i m e  s t e p   10602                              ( at time 5.2999696E+00 )

 nodal point  x-rot      y-rot       z-rot       x-rot vel   y-rot vel   z-rot vel   x-rot acc   y-rot acc   z-rot acc
    22626  3.75120E-04 8.86274E-04-6.30847E-05 1.17360E-03 2.38963E-03-1.60432E-04 2.37474E-03 3.39958E-03-8.40418E-04



 n o d a l   p r i n t   o u t   f o r   t i m e  s t e p   10802                              ( at time 5.3999596E+00 )

 nodal point  x-disp     y-disp      z-disp      x-vel       y-vel       z-vel      x-accl      y-accl      z-accl      x-coor      y-coor      z-coor
    22626 -6.74531E-03-2.33729E-02-1.68231E+01 3.69457E-02 3.49146E-02-2.82081E+00 7.26583E-02 6.65727E-02 4.45995E-01 4.79574E+01-2.20532E+01-9.48464E+00



 n o d a l   p r i n t   o u t   f o r   t i m e  s t e p   10802                              ( at time 5.3999596E+00 )

 nodal point  x-rot      y-rot       z-rot       x-rot vel   y-rot vel   z-rot vel   x-rot acc   y-rot acc   z-rot acc
    22626  5.02914E-04 1.14406E-03-8.26794E-05 1.36206E-03 2.74190E-03-2.35579E-04 1.88474E-03 3.52311E-03-7.51542E-04



 n o d a l   p r i n t   o u t   f o r   t i m e  s t e p   11002                              ( at time 5.4999496E+00 )

 nodal point  x-disp     y-disp      z-disp      x-vel       y-vel       z-vel      x-accl      y-accl      z-accl      x-coor      y-coor      z-coor
    22626 -2.72991E-03-1.94962E-02-1.71031E+01 4.26102E-02 4.28593E-02-2.77898E+00 5.66502E-02 7.94543E-02 4.18357E-01 4.79614E+01-2.20493E+01-9.76459E+00



 n o d a l   p r i n t   o u t   f o r   t i m e  s t e p   11002                              ( at time 5.4999496E+00 )

 nodal point  x-rot      y-rot       z-rot       x-rot vel   y-rot vel   z-rot vel   x-rot acc   y-rot acc   z-rot acc
    22626  6.51060E-04 1.43499E-03-1.09336E-04 1.59636E-03 3.07486E-03-3.08901E-04 2.34329E-03 3.32989E-03-7.33295E-04



 n o d a l   p r i n t   o u t   f o r   t i m e  s t e p   11202                              ( at time 5.5999396E+00 )

 nodal point  x-disp     y-disp      z-disp      x-vel       y-vel       z-vel      x-accl      y-accl      z-accl      x-coor      y-coor      z-coor
    22626  1.83480E-03-1.46413E-02-1.73788E+01 4.87214E-02 5.47264E-02-2.73372E+00 6.11183E-02 1.18683E-01 4.52660E-01 4.79660E+01-2.20444E+01-1.00403E+01



 n o d a l   p r i n t   o u t   f o r   t i m e  s t e p   11202                              ( at time 5.5999396E+00 )

 nodal point  x-rot      y-rot       z-rot       x-rot vel   y-rot vel   z-rot vel   x-rot acc   y-rot acc   z-rot acc
    22626  8.22816E-04 1.76153E-03-1.45635E-04 1.80671E-03 3.46623E-03-4.17250E-04 2.10366E-03 3.91409E-03-1.08360E-03



 n o d a l   p r i n t   o u t   f o r   t i m e  s t e p   11402                              ( at time 5.6999296E+00 )

 nodal point  x-disp     y-disp      z-disp      x-vel       y-vel       z-vel      x-accl      y-accl      z-accl      x-coor      y-coor      z-coor
    22626  7.11195E-03-8.67396E-03-1.76500E+01 5.67248E-02 6.39186E-02-2.69329E+00 8.00418E-02 9.19314E-02 4.04380E-01 4.79713E+01-2.20385E+01-1.03115E+01



 n o d a l   p r i n t   o u t   f o r   t i m e  s t e p   11402                              ( at time 5.6999296E+00 )

 nodal point  x-rot      y-rot       z-rot       x-rot vel   y-rot vel   z-rot vel   x-rot acc   y-rot acc   z-rot acc
    22626  1.01492E-03 2.12400E-03-1.90006E-04 2.03589E-03 3.77155E-03-4.81834E-04 2.29203E-03 3.05352E-03-6.45897E-04



 n o d a l   p r i n t   o u t   f o r   t i m e  s t e p   11602                              ( at time 5.7999195E+00 )

 nodal point  x-disp     y-disp      z-disp      x-vel       y-vel       z-vel      x-accl      y-accl      z-accl      x-coor      y-coor      z-coor
    22626  1.31112E-02-1.84187E-03-1.79170E+01 6.33096E-02 7.28204E-02-2.64775E+00 6.58544E-02 8.90264E-02 4.55423E-01 4.79773E+01-2.20316E+01-1.05785E+01



 n o d a l   p r i n t   o u t   f o r   t i m e  s t e p   11602                              ( at time 5.7999195E+00 )

 nodal point  x-rot      y-rot       z-rot       x-rot vel   y-rot vel   z-rot vel   x-rot acc   y-rot acc   z-rot acc
    22626  1.22722E-03 2.51900E-03-2.42152E-04 2.20766E-03 4.11092E-03-5.85597E-04 1.71788E-03 3.39401E-03-1.03774E-03



 n o d a l   p r i n t   o u t   f o r   t i m e  s t e p   11802                              ( at time 5.8999095E+00 )

 nodal point  x-disp     y-disp      z-disp      x-vel       y-vel       z-vel      x-accl      y-accl      z-accl      x-coor      y-coor      z-coor
    22626  1.98051E-02 5.82802E-03-1.81796E+01 6.97656E-02 8.18420E-02-2.60375E+00 6.45667E-02 9.02251E-02 4.40044E-01 4.79840E+01-2.20240E+01-1.08411E+01



 n o d a l   p r i n t   o u t   f o r   t i m e  s t e p   11802                              ( at time 5.8999095E+00 )

 nodal point  x-rot      y-rot       z-rot       x-rot vel   y-rot vel   z-rot vel   x-rot acc   y-rot acc   z-rot acc
    22626  1.45792E-03 2.94745E-03-3.03721E-04 2.44380E-03 4.44778E-03-6.71497E-04 2.36163E-03 3.36899E-03-8.59088E-04



 n o d a l   p r i n t   o u t   f o r   t i m e  s t e p   12002                              ( at time 5.9998995E+00 )

 nodal point  x-disp     y-disp      z-disp      x-vel       y-vel       z-vel      x-accl      y-accl      z-accl      x-coor      y-coor      z-coor
    22626  2.72646E-02 1.44050E-02-1.84376E+01 7.92265E-02 8.95828E-02-2.55622E+00 9.46185E-02 7.74163E-02 4.75376E-01 4.79914E+01-2.20154E+01-1.10991E+01



 n o d a l   p r i n t   o u t   f o r   t i m e  s t e p   12002                              ( at time 5.9998995E+00 )

 nodal point  x-rot      y-rot       z-rot       x-rot vel   y-rot vel   z-rot vel   x-rot acc   y-rot acc   z-rot acc
    22626  1.71154E-03 3.40767E-03-3.72316E-04 2.60837E-03 4.74345E-03-7.17841E-04 1.64592E-03 2.95692E-03-4.63484E-04



 n o d a l   p r i n t   o u t   f o r   t i m e  s t e p   12202                              ( at time 6.0998895E+00 )

 nodal point  x-disp     y-disp      z-disp      x-vel       y-vel       z-vel      x-accl      y-accl      z-accl      x-coor      y-coor      z-coor
    22626  3.56913E-02 2.37414E-02-1.86907E+01 8.82306E-02 9.68534E-02-2.50795E+00 9.00500E-02 7.27126E-02 4.82730E-01 4.79999E+01-2.20060E+01-1.13522E+01



 n o d a l   p r i n t   o u t   f o r   t i m e  s t e p   12202                              ( at time 6.0998895E+00 )

 nodal point  x-rot      y-rot       z-rot       x-rot vel   y-rot vel   z-rot vel   x-rot acc   y-rot acc   z-rot acc
    22626  1.98034E-03 3.89624E-03-4.49444E-04 2.78565E-03 5.02939E-03-8.10829E-04 1.77296E-03 2.85967E-03-9.29967E-04



 n o d a l   p r i n t   o u t   f o r   t i m e  s t e p   12402                              ( at time 6.1998795E+00 )

 nodal point  x-disp     y-disp      z-disp      x-vel       y-vel       z-vel      x-accl      y-accl      z-accl      x-coor      y-coor      z-coor
    22626  4.48185E-02 3.38970E-02-1.89390E+01 9.49199E-02 1.06730E-01-2.45647E+00 6.68999E-02 9.87745E-02 5.14795E-01 4.80090E+01-2.19959E+01-1.16005E+01



 n o d a l   p r i n t   o u t   f o r   t i m e  s t e p   12402                              ( at time 6.1998795E+00 )

 nodal point  x-rot      y-rot       z-rot       x-rot vel   y-rot vel   z-rot vel   x-rot acc   y-rot acc   z-rot acc
    22626  2.26810E-03 4.41193E-03-5.34057E-04 2.96136E-03 5.27968E-03-8.94491E-04 1.75724E-03 2.50320E-03-8.36710E-04



 n o d a l   p r i n t   o u t   f o r   t i m e  s t e p   12602                              ( at time 6.2998695E+00 )

 nodal point  x-disp     y-disp      z-disp      x-vel       y-vel       z-vel      x-accl      y-accl      z-accl      x-coor      y-coor      z-coor
    22626  5.47849E-02 4.48459E-02-1.91818E+01 1.04301E-01 1.11638E-01-2.40059E+00 9.38247E-02 4.90831E-02 5.58898E-01 4.80190E+01-2.19849E+01-1.18433E+01



 n o d a l   p r i n t   o u t   f o r   t i m e  s t e p   12602                              ( at time 6.2998695E+00 )

 nodal point  x-rot      y-rot       z-rot       x-rot vel   y-rot vel   z-rot vel   x-rot acc   y-rot acc   z-rot acc
    22626  2.57252E-03 4.95304E-03-6.27530E-04 3.12716E-03 5.52694E-03-9.77229E-04 1.65813E-03 2.47289E-03-8.27466E-04



 n o d a l   p r i n t   o u t   f o r   t i m e  s t e p   12802                              ( at time 6.3998595E+00 )

 nodal point  x-disp     y-disp      z-disp      x-vel       y-vel       z-vel      x-accl      y-accl      z-accl      x-coor      y-coor      z-coor
    22626  6.56359E-02 5.63876E-02-1.94189E+01 1.12128E-01 1.19578E-01-2.34302E+00 7.82684E-02 7.94083E-02 5.75796E-01 4.80298E+01-2.19734E+01-1.20804E+01



 n o d a l   p r i n t   o u t   f o r   t i m e  s t e p   12802                              ( at time 6.3998595E+00 )

 nodal point  x-rot      y-rot       z-rot       x-rot vel   y-rot vel   z-rot vel   x-rot acc   y-rot acc   z-rot acc
    22626  2.89383E-03 5.51636E-03-7.29234E-04 3.30414E-03 5.74160E-03-1.05075E-03 1.76999E-03 2.14673E-03-7.35249E-04



 n o d a l   p r i n t   o u t   f o r   t i m e  s t e p   13002                              ( at time 6.4998495E+00 )

 nodal point  x-disp     y-disp      z-disp      x-vel       y-vel       z-vel      x-accl      y-accl      z-accl      x-coor      y-coor      z-coor
    22626  7.71880E-02 6.86708E-02-1.96503E+01 1.18243E-01 1.26178E-01-2.28259E+00 6.11602E-02 6.60054E-02 6.04292E-01 4.80414E+01-2.19611E+01-1.23118E+01



 n o d a l   p r i n t   o u t   f o r   t i m e  s t e p   13002                              ( at time 6.4998495E+00 )

 nodal point  x-rot      y-rot       z-rot       x-rot vel   y-rot vel   z-rot vel   x-rot acc   y-rot acc   z-rot acc
    22626  3.23319E-03 6.10020E-03-8.37705E-04 3.49344E-03 5.93874E-03-1.13683E-03 1.89325E-03 1.97164E-03-8.60960E-04



 n o d a l   p r i n t   o u t   f o r   t i m e  s t e p   13202                              ( at time 6.5998395E+00 )

 nodal point  x-disp     y-disp      z-disp      x-vel       y-vel       z-vel      x-accl      y-accl      z-accl      x-coor      y-coor      z-coor
    22626  8.93428E-02 8.16706E-02-1.98753E+01 1.25567E-01 1.32736E-01-2.21945E+00 7.32467E-02 6.55944E-02 6.31484E-01 4.80535E+01-2.19481E+01-1.25368E+01



 n o d a l   p r i n t   o u t   f o r   t i m e  s t e p   13202                              ( at time 6.5998395E+00 )

 nodal point  x-rot      y-rot       z-rot       x-rot vel   y-rot vel   z-rot vel   x-rot acc   y-rot acc   z-rot acc
    22626  3.59331E-03 6.70463E-03-9.55545E-04 3.70988E-03 6.12396E-03-1.21660E-03 2.16454E-03 1.85242E-03-7.97703E-04



 n o d a l   p r i n t   o u t   f o r   t i m e  s t e p   13402                              ( at time 6.6998295E+00 )

 nodal point  x-disp     y-disp      z-disp      x-vel       y-vel       z-vel      x-accl      y-accl      z-accl      x-coor      y-coor      z-coor
    22626  1.02190E-01 9.53541E-02-2.00937E+01 1.31993E-01 1.41370E-01-2.14873E+00 6.42646E-02 8.63407E-02 7.07254E-01 4.80664E+01-2.19344E+01-1.27552E+01



 n o d a l   p r i n t   o u t   f o r   t i m e  s t e p   13402                              ( at time 6.6998295E+00 )

 nodal point  x-rot      y-rot       z-rot       x-rot vel   y-rot vel   z-rot vel   x-rot acc   y-rot acc   z-rot acc
    22626  3.97696E-03 7.32555E-03-1.08153E-03 3.95617E-03 6.30087E-03-1.30465E-03 2.46318E-03 1.76930E-03-8.80575E-04



 n o d a l   p r i n t   o u t   f o r   t i m e  s t e p   13602                              ( at time 6.7998195E+00 )

 nodal point  x-disp     y-disp      z-disp      x-vel       y-vel       z-vel      x-accl      y-accl      z-accl      x-coor      y-coor      z-coor
    22626  1.15588E-01 1.09667E-01-2.03051E+01 1.36772E-01 1.44074E-01-2.07968E+00 4.78025E-02 2.70451E-02 6.90544E-01 4.80798E+01-2.19201E+01-1.29666E+01



 n o d a l   p r i n t   o u t   f o r   t i m e  s t e p   13602                              ( at time 6.7998195E+00 )

 nodal point  x-rot      y-rot       z-rot       x-rot vel   y-rot vel   z-rot vel   x-rot acc   y-rot acc   z-rot acc
    22626  4.38677E-03 7.96164E-03-1.21499E-03 4.25913E-03 6.42918E-03-1.39253E-03 3.02994E-03 1.28321E-03-8.78917E-04



 n o d a l   p r i n t   o u t   f o r   t i m e  s t e p   13802                              ( at time 6.8998095E+00 )

 nodal point  x-disp     y-disp      z-disp      x-vel       y-vel       z-vel      x-accl      y-accl      z-accl      x-coor      y-coor      z-coor
    22626  1.29505E-01 1.24170E-01-2.05094E+01 1.42313E-01 1.46403E-01-2.00663E+00 5.54139E-02 2.32905E-02 7.30579E-01 4.80937E+01-2.19056E+01-1.31709E+01



 n o d a l   p r i n t   o u t   f o r   t i m e  s t e p   13802                              ( at time 6.8998095E+00 )

 nodal point  x-rot      y-rot       z-rot       x-rot vel   y-rot vel   z-rot vel   x-rot acc   y-rot acc   z-rot acc
    22626  4.82903E-03 8.61306E-03-1.36006E-03 4.59927E-03 6.58388E-03-1.47621E-03 3.40169E-03 1.54710E-03-8.36895E-04



 n o d a l   p r i n t   o u t   f o r   t i m e  s t e p   14002                              ( at time 6.9997995E+00 )

 nodal point  x-disp     y-disp      z-disp      x-vel       y-vel       z-vel      x-accl      y-accl      z-accl      x-coor      y-coor      z-coor
    22626  1.43968E-01 1.39083E-01-2.07062E+01 1.46208E-01 1.50593E-01-1.92934E+00 3.89529E-02 4.19044E-02 7.72993E-01 4.81081E+01-2.18907E+01-1.33677E+01



 n o d a l   p r i n t   o u t   f o r   t i m e  s t e p   14002                              ( at time 6.9997995E+00 )

 nodal point  x-rot      y-rot       z-rot       x-rot vel   y-rot vel   z-rot vel   x-rot acc   y-rot acc   z-rot acc
    22626  5.30437E-03 9.27650E-03-1.51373E-03 4.89458E-03 6.69230E-03-1.61385E-03 2.95337E-03 1.08435E-03-1.37653E-03



 n o d a l   p r i n t   o u t   f o r   t i m e  s t e p   14202                              ( at time 7.0997895E+00 )

 nodal point  x-disp     y-disp      z-disp      x-vel       y-vel       z-vel      x-accl      y-accl      z-accl      x-coor      y-coor      z-coor
    22626  1.58741E-01 1.53954E-01-2.08954E+01 1.48537E-01 1.47953E-01-1.85432E+00 2.32923E-02-2.63971E-02 7.50274E-01 4.81229E+01-2.18758E+01-1.35569E+01



 n o d a l   p r i n t   o u t   f o r   t i m e  s t e p   14202                              ( at time 7.0997895E+00 )

 nodal point  x-rot      y-rot       z-rot       x-rot vel   y-rot vel   z-rot vel   x-rot acc   y-rot acc   z-rot acc
    22626  5.80941E-03 9.94996E-03-1.67944E-03 5.22991E-03 6.80831E-03-1.66725E-03 3.35371E-03 1.16023E-03-5.34035E-04



 n o d a l   p r i n t   o u t   f o r   t i m e  s t e p   14402                              ( at time 7.1997794E+00 )

 nodal point  x-disp     y-disp      z-disp      x-vel       y-vel       z-vel      x-accl      y-accl      z-accl      x-coor      y-coor      z-coor
    22626  1.73769E-01 1.68805E-01-2.10768E+01 1.50863E-01 1.47532E-01-1.77582E+00 2.32635E-02-4.21492E-03 7.85111E-01 4.81379E+01-2.18610E+01-1.37383E+01



 n o d a l   p r i n t   o u t   f o r   t i m e  s t e p   14402                              ( at time 7.1997794E+00 )

 nodal point  x-rot      y-rot       z-rot       x-rot vel   y-rot vel   z-rot vel   x-rot acc   y-rot acc   z-rot acc
    22626  6.34698E-03 1.06393E-02-1.85483E-03 5.53568E-03 6.97724E-03-1.78073E-03 3.05793E-03 1.68945E-03-1.13491E-03



 n o d a l   p r i n t   o u t   f o r   t i m e  s t e p   14602                              ( at time 7.2997694E+00 )

 nodal point  x-disp     y-disp      z-disp      x-vel       y-vel       z-vel      x-accl      y-accl      z-accl      x-coor      y-coor      z-coor
    22626  1.89004E-01 1.83582E-01-2.12505E+01 1.52396E-01 1.45677E-01-1.69808E+00 1.53240E-02-1.85532E-02 7.77482E-01 4.81532E+01-2.18462E+01-1.39120E+01



 n o d a l   p r i n t   o u t   f o r   t i m e  s t e p   14602                              ( at time 7.2997694E+00 )

 nodal point  x-rot      y-rot       z-rot       x-rot vel   y-rot vel   z-rot vel   x-rot acc   y-rot acc   z-rot acc
    22626  6.91684E-03 1.13419E-02-2.04092E-03 5.84012E-03 7.09539E-03-1.90941E-03 3.04470E-03 1.18159E-03-1.28695E-03



 n o d a l   p r i n t   o u t   f o r   t i m e  s t e p   14802                              ( at time 7.3997594E+00 )

 nodal point  x-disp     y-disp      z-disp      x-vel       y-vel       z-vel      x-accl      y-accl      z-accl      x-coor      y-coor      z-coor
    22626  2.04473E-01 1.97926E-01-2.14163E+01 1.55198E-01 1.42077E-01-1.62065E+00 2.80251E-02-3.59955E-02 7.74395E-01 4.81687E+01-2.18319E+01-1.40778E+01



 n o d a l   p r i n t   o u t   f o r   t i m e  s t e p   14802                              ( at time 7.3997594E+00 )

 nodal point  x-rot      y-rot       z-rot       x-rot vel   y-rot vel   z-rot vel   x-rot acc   y-rot acc   z-rot acc
    22626  7.51668E-03 1.20558E-02-2.23547E-03 6.16169E-03 7.21176E-03-1.96142E-03 3.21607E-03 1.16380E-03-5.20158E-04



 n o d a l   p r i n t   o u t   f o r   t i m e  s t e p   15002                              ( at time 7.4997494E+00 )

 nodal point  x-disp     y-disp      z-disp      x-vel       y-vel       z-vel      x-accl      y-accl      z-accl      x-coor      y-coor      z-coor
    22626  2.20132E-01 2.11974E-01-2.15746E+01 1.55934E-01 1.37005E-01-1.54354E+00 7.36591E-03-5.07247E-02 7.71159E-01 4.81843E+01-2.18178E+01-1.42361E+01



 n o d a l   p r i n t   o u t   f o r   t i m e  s t e p   15002                              ( at time 7.4997494E+00 )

 nodal point  x-rot      y-rot       z-rot       x-rot vel   y-rot vel   z-rot vel   x-rot acc   y-rot acc   z-rot acc
    22626  8.15015E-03 1.27836E-02-2.43987E-03 6.49072E-03 7.34761E-03-2.09344E-03 3.29057E-03 1.35871E-03-1.32033E-03



 n o d a l   p r i n t   o u t   f o r   t i m e  s t e p   15202                              ( at time 7.5997394E+00 )

 nodal point  x-disp     y-disp      z-disp      x-vel       y-vel       z-vel      x-accl      y-accl      z-accl      x-coor      y-coor      z-coor
    22626  2.35829E-01 2.25423E-01-2.17251E+01 1.58466E-01 1.32368E-01-1.46583E+00 2.53204E-02-4.63834E-02 7.77141E-01 4.82000E+01-2.18044E+01-1.43866E+01



 n o d a l   p r i n t   o u t   f o r   t i m e  s t e p   15202                              ( at time 7.5997394E+00 )

 nodal point  x-rot      y-rot       z-rot       x-rot vel   y-rot vel   z-rot vel   x-rot acc   y-rot acc   z-rot acc
    22626  8.81651E-03 1.35191E-02-2.65457E-03 6.85620E-03 7.45342E-03-2.19371E-03 3.65521E-03 1.05815E-03-1.00281E-03



 n o d a l   p r i n t   o u t   f o r   t i m e  s t e p   15402                              ( at time 7.6997294E+00 )

 nodal point  x-disp     y-disp      z-disp      x-vel       y-vel       z-vel      x-accl      y-accl      z-accl      x-coor      y-coor      z-coor
    22626  2.51826E-01 2.38311E-01-2.18680E+01 1.62948E-01 1.26097E-01-1.39707E+00 4.48189E-02-6.27067E-02 6.87670E-01 4.82160E+01-2.17915E+01-1.45295E+01



 n o d a l   p r i n t   o u t   f o r   t i m e  s t e p   15402                              ( at time 7.6997294E+00 )

 nodal point  x-rot      y-rot       z-rot       x-rot vel   y-rot vel   z-rot vel   x-rot acc   y-rot acc   z-rot acc
    22626  9.52262E-03 1.42703E-02-2.87462E-03 7.24205E-03 7.49282E-03-2.22996E-03 3.85892E-03 3.94106E-04-3.62584E-04



 n o d a l   p r i n t   o u t   f o r   t i m e  s t e p   15602                              ( at time 7.7997194E+00 )

 nodal point  x-disp     y-disp      z-disp      x-vel       y-vel       z-vel      x-accl      y-accl      z-accl      x-coor      y-coor      z-coor
    22626  2.68167E-01 2.50861E-01-2.20039E+01 1.63897E-01 1.21735E-01-1.32160E+00 9.49330E-03-4.36285E-02 7.54799E-01 4.82323E+01-2.17789E+01-1.46654E+01



 n o d a l   p r i n t   o u t   f o r   t i m e  s t e p   15602                              ( at time 7.7997194E+00 )

 nodal point  x-rot      y-rot       z-rot       x-rot vel   y-rot vel   z-rot vel   x-rot acc   y-rot acc   z-rot acc
    22626  1.02652E-02 1.50249E-02-3.10385E-03 7.59533E-03 7.62971E-03-2.34638E-03 3.53308E-03 1.36895E-03-1.16431E-03



 n o d a l   p r i n t   o u t   f o r   t i m e  s t e p   15802                              ( at time 7.8997094E+00 )

 nodal point  x-disp     y-disp      z-disp      x-vel       y-vel       z-vel      x-accl      y-accl      z-accl      x-coor      y-coor      z-coor
    22626  2.84789E-01 2.62552E-01-2.21323E+01 1.69338E-01 1.15134E-01-1.24655E+00 5.44166E-02-6.60181E-02 7.50595E-01 4.82490E+01-2.17672E+01-1.47938E+01



 n o d a l   p r i n t   o u t   f o r   t i m e  s t e p   15802                              ( at time 7.8997094E+00 )

 nodal point  x-rot      y-rot       z-rot       x-rot vel   y-rot vel   z-rot vel   x-rot acc   y-rot acc   z-rot acc
    22626  1.10458E-02 1.57919E-02-3.33967E-03 8.01182E-03 7.74249E-03-2.37559E-03 4.16531E-03 1.12800E-03-2.92102E-04



 n o d a l   p r i n t   o u t   f o r   t i m e  s t e p   16002                              ( at time 7.9996994E+00 )

 nodal point  x-disp     y-disp      z-disp      x-vel       y-vel       z-vel      x-accl      y-accl      z-accl      x-coor      y-coor      z-coor
    22626  3.02024E-01 2.73872E-01-2.22537E+01 1.74314E-01 1.08197E-01-1.18181E+00 4.97626E-02-6.93801E-02 6.47499E-01 4.82662E+01-2.17559E+01-1.49152E+01



 n o d a l   p r i n t   o u t   f o r   t i m e  s t e p   16002                              ( at time 7.9996994E+00 )

 nodal point  x-rot      y-rot       z-rot       x-rot vel   y-rot vel   z-rot vel   x-rot acc   y-rot acc   z-rot acc
    22626  1.18676E-02 1.65672E-02-3.58011E-03 8.42046E-03 7.75012E-03-2.40554E-03 4.08687E-03 7.62175E-05-2.99551E-04



 n o d a l   p r i n t   o u t   f o r   t i m e  s t e p   16202                              ( at time 8.0996894E+00 )

 nodal point  x-disp     y-disp      z-disp      x-vel       y-vel       z-vel      x-accl      y-accl      z-accl      x-coor      y-coor      z-coor
    22626  3.19531E-01 2.84695E-01-2.23679E+01 1.77174E-01 1.05620E-01-1.10519E+00 2.86024E-02-2.57698E-02 7.66236E-01 4.82837E+01-2.17451E+01-1.50294E+01



 n o d a l   p r i n t   o u t   f o r   t i m e  s t e p   16202                              ( at time 8.0996894E+00 )

 nodal point  x-rot      y-rot       z-rot       x-rot vel   y-rot vel   z-rot vel   x-rot acc   y-rot acc   z-rot acc
    22626  1.27261E-02 1.73507E-02-3.83131E-03 8.78361E-03 7.88673E-03-2.56799E-03 3.63186E-03 1.36630E-03-1.62470E-03



 n o d a l   p r i n t   o u t   f o r   t i m e  s t e p   16402                              ( at time 8.1996794E+00 )

 nodal point  x-disp     y-disp      z-disp      x-vel       y-vel       z-vel      x-accl      y-accl      z-accl      x-coor      y-coor      z-coor
    22626  3.37611E-01 2.94615E-01-2.24752E+01 1.84514E-01 9.77436E-02-1.03749E+00 7.34093E-02-7.87706E-02 6.77042E-01 4.83018E+01-2.17352E+01-1.51367E+01



 n o d a l   p r i n t   o u t   f o r   t i m e  s t e p   16402                              ( at time 8.1996794E+00 )

 nodal point  x-rot      y-rot       z-rot       x-rot vel   y-rot vel   z-rot vel   x-rot acc   y-rot acc   z-rot acc
    22626  1.36255E-02 1.81403E-02-4.08522E-03 9.20427E-03 7.92586E-03-2.54080E-03 4.20700E-03 3.91288E-04 2.71948E-04



 n o d a l   p r i n t   o u t   f o r   t i m e  s t e p   16602                              ( at time 8.2996694E+00 )

 nodal point  x-disp     y-disp      z-disp      x-vel       y-vel       z-vel      x-accl      y-accl      z-accl      x-coor      y-coor      z-coor
    22626  3.56413E-01 3.04287E-01-2.25754E+01 1.90591E-01 9.42786E-02-9.67287E-01 6.07732E-02-3.46540E-02 7.02115E-01 4.83206E+01-2.17255E+01-1.52369E+01



 n o d a l   p r i n t   o u t   f o r   t i m e  s t e p   16602                              ( at time 8.2996694E+00 )

 nodal point  x-rot      y-rot       z-rot       x-rot vel   y-rot vel   z-rot vel   x-rot acc   y-rot acc   z-rot acc
    22626  1.45644E-02 1.89369E-02-4.34473E-03 9.58380E-03 8.01474E-03-2.64004E-03 3.79573E-03 8.88926E-04-9.92446E-04



 n o d a l   p r i n t   o u t   f o r   t i m e  s t e p   16802                              ( at time 8.3996594E+00 )

 nodal point  x-disp     y-disp      z-disp      x-vel       y-vel       z-vel      x-accl      y-accl      z-accl      x-coor      y-coor      z-coor
    22626  3.75801E-01 3.13546E-01-2.26685E+01 1.98978E-01 8.99504E-02-8.98616E-01 8.38855E-02-4.32862E-02 6.86786E-01 4.83400E+01-2.17162E+01-1.53300E+01



 n o d a l   p r i n t   o u t   f o r   t i m e  s t e p   16802                              ( at time 8.3996594E+00 )

 nodal point  x-rot      y-rot       z-rot       x-rot vel   y-rot vel   z-rot vel   x-rot acc   y-rot acc   z-rot acc
    22626  1.55464E-02 1.97406E-02-4.61269E-03 1.00415E-02 8.03288E-03-2.67220E-03 4.57751E-03 1.81449E-04-3.21704E-04



 n o d a l   p r i n t   o u t   f o r   t i m e  s t e p   17002                              ( at time 8.4996494E+00 )

 nodal point  x-disp     y-disp      z-disp      x-vel       y-vel       z-vel      x-accl      y-accl      z-accl      x-coor      y-coor      z-coor
    22626  3.96045E-01 3.22129E-01-2.27548E+01 2.06361E-01 8.41641E-02-8.25188E-01 7.38309E-02-5.78688E-02 7.34354E-01 4.83602E+01-2.17077E+01-1.54163E+01



 n o d a l   p r i n t   o u t   f o r   t i m e  s t e p   17002                              ( at time 8.4996494E+00 )

 nodal point  x-rot      y-rot       z-rot       x-rot vel   y-rot vel   z-rot vel   x-rot acc   y-rot acc   z-rot acc
    22626  1.65645E-02 2.05484E-02-4.87904E-03 1.03759E-02 8.12504E-03-2.71404E-03 3.34413E-03 9.21646E-04-4.18395E-04



 n o d a l   p r i n t   o u t   f o r   t i m e  s t e p   17202                              ( at time 8.5996394E+00 )

 nodal point  x-disp     y-disp      z-disp      x-vel       y-vel       z-vel      x-accl      y-accl      z-accl      x-coor      y-coor      z-coor
    22626  4.16996E-01 3.30330E-01-2.28338E+01 2.14511E-01 8.11974E-02-7.56322E-01 8.15125E-02-2.96695E-02 6.88724E-01 4.83812E+01-2.16995E+01-1.54953E+01



 n o d a l   p r i n t   o u t   f o r   t i m e  s t e p   17202                              ( at time 8.5996394E+00 )

 nodal point  x-rot      y-rot       z-rot       x-rot vel   y-rot vel   z-rot vel   x-rot acc   y-rot acc   z-rot acc
    22626  1.76277E-02 2.13655E-02-5.15471E-03 1.08633E-02 8.17565E-03-2.78533E-03 4.87467E-03 5.06197E-04-7.12976E-04



 n o d a l   p r i n t   o u t   f o r   t i m e  s t e p   17402                              ( at time 8.6996293E+00 )

 nodal point  x-disp     y-disp      z-disp      x-vel       y-vel       z-vel      x-accl      y-accl      z-accl      x-coor      y-coor      z-coor
    22626  4.38835E-01 3.38217E-01-2.29058E+01 2.21945E-01 7.65207E-02-6.83844E-01 7.43506E-02-4.67713E-02 7.24854E-01 4.84030E+01-2.16916E+01-1.55673E+01



 n o d a l   p r i n t   o u t   f o r   t i m e  s t e p   17402                              ( at time 8.6996293E+00 )

 nodal point  x-rot      y-rot       z-rot       x-rot vel   y-rot vel   z-rot vel   x-rot acc   y-rot acc   z-rot acc
    22626  1.87313E-02 2.21849E-02-5.43032E-03 1.12033E-02 8.21370E-03-2.79161E-03 3.40036E-03 3.80517E-04-6.27955E-05



 n o d a l   p r i n t   o u t   f o r   t i m e  s t e p   17602                              ( at time 8.7996193E+00 )

 nodal point  x-disp     y-disp      z-disp      x-vel       y-vel       z-vel      x-accl      y-accl      z-accl      x-coor      y-coor      z-coor
    22626  4.61467E-01 3.45563E-01-2.29705E+01 2.30660E-01 7.09295E-02-6.10913E-01 8.71585E-02-5.59180E-02 7.29376E-01 4.84256E+01-2.16842E+01-1.56320E+01



 n o d a l   p r i n t   o u t   f o r   t i m e  s t e p   17602                              ( at time 8.7996193E+00 )

 nodal point  x-rot      y-rot       z-rot       x-rot vel   y-rot vel   z-rot vel   x-rot acc   y-rot acc   z-rot acc
    22626  1.98754E-02 2.30118E-02-5.71253E-03 1.16601E-02 8.32475E-03-2.82430E-03 4.56830E-03 1.11061E-03-3.26911E-04



 n o d a l   p r i n t   o u t   f o r   t i m e  s t e p   17802                              ( at time 8.8996093E+00 )

 nodal point  x-disp     y-disp      z-disp      x-vel       y-vel       z-vel      x-accl      y-accl      z-accl      x-coor      y-coor      z-coor
    22626  4.84954E-01 3.52560E-01-2.30278E+01 2.40218E-01 6.99178E-02-5.37024E-01 9.55908E-02-1.01179E-02 7.38964E-01 4.84491E+01-2.16772E+01-1.56893E+01



 n o d a l   p r i n t   o u t   f o r   t i m e  s t e p   17802                              ( at time 8.8996093E+00 )

 nodal point  x-rot      y-rot       z-rot       x-rot vel   y-rot vel   z-rot vel   x-rot acc   y-rot acc   z-rot acc
    22626  2.10607E-02 2.38467E-02-5.99573E-03 1.20509E-02 8.39145E-03-2.85562E-03 3.90889E-03 6.67053E-04-3.13217E-04



 n o d a l   p r i n t   o u t   f o r   t i m e  s t e p   18002                              ( at time 8.9995993E+00 )

 nodal point  x-disp     y-disp      z-disp      x-vel       y-vel       z-vel      x-accl      y-accl      z-accl      x-coor      y-coor      z-coor
    22626  5.09383E-01 3.59434E-01-2.30779E+01 2.47049E-01 6.65008E-02-4.64122E-01 6.83125E-02-3.41737E-02 7.29092E-01 4.84736E+01-2.16704E+01-1.57394E+01



 n o d a l   p r i n t   o u t   f o r   t i m e  s t e p   18002                              ( at time 8.9995993E+00 )

 nodal point  x-rot      y-rot       z-rot       x-rot vel   y-rot vel   z-rot vel   x-rot acc   y-rot acc   z-rot acc
    22626  2.22912E-02 2.46893E-02-6.28348E-03 1.24984E-02 8.51608E-03-2.89601E-03 4.47514E-03 1.24638E-03-4.03955E-04



 n o d a l   p r i n t   o u t   f o r   t i m e  s t e p   18202                              ( at time 9.0995893E+00 )

 nodal point  x-disp     y-disp      z-disp      x-vel       y-vel       z-vel      x-accl      y-accl      z-accl      x-coor      y-coor      z-coor
    22626  5.34750E-01 3.65870E-01-2.31207E+01 2.58536E-01 6.07676E-02-3.92097E-01 1.14880E-01-5.73381E-02 7.20323E-01 4.84989E+01-2.16639E+01-1.57822E+01



 n o d a l   p r i n t   o u t   f o r   t i m e  s t e p   18202                              ( at time 9.0995893E+00 )

 nodal point  x-rot      y-rot       z-rot       x-rot vel   y-rot vel   z-rot vel   x-rot acc   y-rot acc   z-rot acc
    22626  2.35590E-02 2.55409E-02-6.57153E-03 1.28565E-02 8.54838E-03-2.87068E-03 3.58087E-03 3.23062E-04 2.53329E-04



 n o d a l   p r i n t   o u t   f o r   t i m e  s t e p   18402                              ( at time 9.1995793E+00 )

 nodal point  x-disp     y-disp      z-disp      x-vel       y-vel       z-vel      x-accl      y-accl      z-accl      x-coor      y-coor      z-coor
    22626  5.60987E-01 3.72294E-01-2.31560E+01 2.64795E-01 6.61537E-02-3.20283E-01 6.25942E-02 5.38670E-02 7.18215E-01 4.85252E+01-2.16575E+01-1.58175E+01



 n o d a l   p r i n t   o u t   f o r   t i m e  s t e p   18402                              ( at time 9.1995793E+00 )

 nodal point  x-rot      y-rot       z-rot       x-rot vel   y-rot vel   z-rot vel   x-rot acc   y-rot acc   z-rot acc
    22626  2.48717E-02 2.64028E-02-6.86213E-03 1.33818E-02 8.67819E-03-2.96028E-03 5.25407E-03 1.29821E-03-8.96125E-04



 n o d a l   p r i n t   o u t   f o r   t i m e  s t e p   18602                              ( at time 9.2995693E+00 )

 nodal point  x-disp     y-disp      z-disp      x-vel       y-vel       z-vel      x-accl      y-accl      z-accl      x-coor      y-coor      z-coor
    22626  5.87819E-01 3.78737E-01-2.31845E+01 2.73363E-01 6.12145E-02-2.51349E-01 8.56915E-02-4.93970E-02 6.89412E-01 4.85520E+01-2.16511E+01-1.58460E+01



 n o d a l   p r i n t   o u t   f o r   t i m e  s t e p   18602                              ( at time 9.2995693E+00 )

 nodal point  x-rot      y-rot       z-rot       x-rot vel   y-rot vel   z-rot vel   x-rot acc   y-rot acc   z-rot acc
    22626  2.62244E-02 2.72752E-02-7.15651E-03 1.36797E-02 8.78066E-03-2.91802E-03 2.97889E-03 1.02482E-03 4.22672E-04



 n o d a l   p r i n t   o u t   f o r   t i m e  s t e p   18802                              ( at time 9.3995593E+00 )

 nodal point  x-disp     y-disp      z-disp      x-vel       y-vel       z-vel      x-accl      y-accl      z-accl      x-coor      y-coor      z-coor
    22626  6.15569E-01 3.84757E-01-2.32062E+01 2.80191E-01 6.29311E-02-1.84165E-01 6.82909E-02 1.71681E-02 6.71907E-01 4.85798E+01-2.16450E+01-1.58677E+01



 n o d a l   p r i n t   o u t   f o r   t i m e  s t e p   18802                              ( at time 9.3995593E+00 )

 nodal point  x-rot      y-rot       z-rot       x-rot vel   y-rot vel   z-rot vel   x-rot acc   y-rot acc   z-rot acc
    22626  2.76117E-02 2.81568E-02-7.44857E-03 1.40974E-02 8.85280E-03-2.94066E-03 4.17752E-03 7.21457E-04-2.26430E-04



 n o d a l   p r i n t   o u t   f o r   t i m e  s t e p   19002                              ( at time 9.4995493E+00 )

 nodal point  x-disp     y-disp      z-disp      x-vel       y-vel       z-vel      x-accl      y-accl      z-accl      x-coor      y-coor      z-coor
    22626  6.43624E-01 3.91206E-01-2.32217E+01 2.81537E-01 6.64693E-02-1.25560E-01 1.34571E-02 3.53854E-02 5.86110E-01 4.86078E+01-2.16386E+01-1.58832E+01



 n o d a l   p r i n t   o u t   f o r   t i m e  s t e p   19002                              ( at time 9.4995493E+00 )

 nodal point  x-rot      y-rot       z-rot       x-rot vel   y-rot vel   z-rot vel   x-rot acc   y-rot acc   z-rot acc
    22626  2.90418E-02 2.90484E-02-7.74599E-03 1.45052E-02 8.95256E-03-3.00303E-03 4.07806E-03 9.97771E-04-6.23753E-04



 n o d a l   p r i n t   o u t   f o r   t i m e  s t e p   19202                              ( at time 9.5995393E+00 )

 nodal point  x-disp     y-disp      z-disp      x-vel       y-vel       z-vel      x-accl      y-accl      z-accl      x-coor      y-coor      z-coor
    22626  6.72302E-01 3.97280E-01-2.32317E+01 2.89973E-01 5.89103E-02-7.05881E-02 8.43671E-02-7.55972E-02 5.49769E-01 4.86365E+01-2.16325E+01-1.58932E+01



 n o d a l   p r i n t   o u t   f o r   t i m e  s t e p   19202                              ( at time 9.5995393E+00 )

 nodal point  x-rot      y-rot       z-rot       x-rot vel   y-rot vel   z-rot vel   x-rot acc   y-rot acc   z-rot acc
    22626  3.04959E-02 2.99497E-02-8.04026E-03 1.46383E-02 9.04319E-03-2.93135E-03 1.33157E-03 9.06362E-04 7.16867E-04



 n o d a l   p r i n t   o u t   f o r   t i m e  s t e p   19402                              ( at time 9.6995293E+00 )

 nodal point  x-disp     y-disp      z-disp      x-vel       y-vel       z-vel      x-accl      y-accl      z-accl      x-coor      y-coor      z-coor
    22626  7.01273E-01 4.03753E-01-2.32363E+01 2.90691E-01 6.80034E-02-2.68278E-02 7.17981E-03 9.09401E-02 4.37648E-01 4.86655E+01-2.16260E+01-1.58978E+01



 n o d a l   p r i n t   o u t   f o r   t i m e  s t e p   19402                              ( at time 9.6995293E+00 )

 nodal point  x-rot      y-rot       z-rot       x-rot vel   y-rot vel   z-rot vel   x-rot acc   y-rot acc   z-rot acc
    22626  3.19861E-02 3.08574E-02-8.33936E-03 1.51517E-02 9.09636E-03-3.01392E-03 5.13443E-03 5.31699E-04-8.25780E-04



 n o d a l   p r i n t   o u t   f o r   t i m e  s t e p   19602                              ( at time 9.7995193E+00 )

 nodal point  x-disp     y-disp      z-disp      x-vel       y-vel       z-vel      x-accl      y-accl      z-accl      x-coor      y-coor      z-coor
    22626  7.30425E-01 4.10154E-01-2.32366E+01 2.94526E-01 5.86723E-02 2.26812E-02 3.83577E-02-9.33202E-02 4.95140E-01 4.86946E+01-2.16196E+01-1.58981E+01



 n o d a l   p r i n t   o u t   f o r   t i m e  s t e p   19602                              ( at time 9.7995193E+00 )

 nodal point  x-rot      y-rot       z-rot       x-rot vel   y-rot vel   z-rot vel   x-rot acc   y-rot acc   z-rot acc
    22626  3.35035E-02 3.17752E-02-8.63962E-03 1.51855E-02 9.23533E-03-2.98351E-03 3.38002E-04 1.38985E-03 3.04103E-04



 n o d a l   p r i n t   o u t   f o r   t i m e  s t e p   19802                              ( at time 9.8995093E+00 )

 nodal point  x-disp     y-disp      z-disp      x-vel       y-vel       z-vel      x-accl      y-accl      z-accl      x-coor      y-coor      z-coor
    22626  7.60008E-01 4.16295E-01-2.32323E+01 2.96867E-01 6.54771E-02 5.93080E-02 2.34121E-02 6.80551E-02 3.66305E-01 4.87242E+01-2.16135E+01-1.58938E+01



 n o d a l   p r i n t   o u t   f o r   t i m e  s t e p   19802                              ( at time 9.8995093E+00 )

 nodal point  x-rot      y-rot       z-rot       x-rot vel   y-rot vel   z-rot vel   x-rot acc   y-rot acc   z-rot acc
    22626  3.50402E-02 3.26953E-02-8.94075E-03 1.56107E-02 9.20773E-03-3.02928E-03 4.25277E-03-2.76035E-04-4.57773E-04



 n o d a l   p r i n t   o u t   f o r   t i m e  s t e p   20003                              ( at time 9.9999992E+00 )

 nodal point  x-disp     y-disp      z-disp      x-vel       y-vel       z-vel      x-accl      y-accl      z-accl      x-coor      y-coor      z-coor
[...]
    22626  2.52610E-01 1.35545E-01-6.23880E-02 1.57844E-02 6.39887E-03-3.93153E-03-1.70839E-04-4.52478E-05 5.20443E-04



 n o d a l   p r i n t   o u t   f o r   t i m e  s t e p   45205                              ( at time 2.2599738E+01 )

 nodal point  x-disp     y-disp      z-disp      x-vel       y-vel       z-vel      x-accl      y-accl      z-accl      x-coor      y-coor      z-coor
    22626  4.25108E+00 3.14722E-01-1.72575E+01 3.74207E-01-1.24064E-01 4.69155E-01-1.06523E-03 3.07975E-02-8.41009E-03 5.22153E+01-2.17151E+01-9.91899E+00



 n o d a l   p r i n t   o u t   f o r   t i m e  s t e p   45205                              ( at time 2.2599738E+01 )

 nodal point  x-rot      y-rot       z-rot       x-rot vel   y-rot vel   z-rot vel   x-rot acc   y-rot acc   z-rot acc
    22626  2.54187E-01 1.36185E-01-6.27797E-02 1.57585E-02 6.37801E-03-3.91482E-03-2.59360E-04-2.08631E-04 1.67062E-04



 n o d a l   p r i n t   o u t   f o r   t i m e  s t e p   45405                              ( at time 2.2699728E+01 )

 nodal point  x-disp     y-disp      z-disp      x-vel       y-vel       z-vel      x-accl      y-accl      z-accl      x-coor      y-coor      z-coor
    22626  4.28853E+00 3.02414E-01-1.72106E+01 3.75080E-01-1.22275E-01 4.68839E-01 8.73126E-03 1.78958E-02-3.16536E-03 5.22527E+01-2.17274E+01-9.87212E+00



 n o d a l   p r i n t   o u t   f o r   t i m e  s t e p   45405                              ( at time 2.2699728E+01 )

 nodal point  x-rot      y-rot       z-rot       x-rot vel   y-rot vel   z-rot vel   x-rot acc   y-rot acc   z-rot acc
    22626  2.55762E-01 1.36821E-01-6.31702E-02 1.57494E-02 6.36152E-03-3.88605E-03-9.03297E-05-1.64848E-04 2.87764E-04



 n o d a l   p r i n t   o u t   f o r   t i m e  s t e p   45605                              ( at time 2.2799718E+01 )

 nodal point  x-disp     y-disp      z-disp      x-vel       y-vel       z-vel      x-accl      y-accl      z-accl      x-coor      y-coor      z-coor
    22626  4.32607E+00 2.90286E-01-1.71638E+01 3.76063E-01-1.20928E-01 4.67516E-01 9.83090E-03 1.34698E-02-1.32340E-02 5.22902E+01-2.17395E+01-9.82531E+00



 n o d a l   p r i n t   o u t   f o r   t i m e  s t e p   45605                              ( at time 2.2799718E+01 )

 nodal point  x-rot      y-rot       z-rot       x-rot vel   y-rot vel   z-rot vel   x-rot acc   y-rot acc   z-rot acc
    22626  2.57336E-01 1.37457E-01-6.35567E-02 1.57417E-02 6.35001E-03-3.84888E-03-7.69715E-05-1.15150E-04 3.71732E-04



 n o d a l   p r i n t   o u t   f o r   t i m e  s t e p   45805                              ( at time 2.2899708E+01 )

 nodal point  x-disp     y-disp      z-disp      x-vel       y-vel       z-vel      x-accl      y-accl      z-accl      x-coor      y-coor      z-coor
    22626  4.36366E+00 2.78236E-01-1.71172E+01 3.76117E-01-1.19867E-01 4.65482E-01 5.42462E-04 1.06041E-02-2.03373E-02 5.23278E+01-2.17516E+01-9.77870E+00



 n o d a l   p r i n t   o u t   f o r   t i m e  s t e p   45805                              ( at time 2.2899708E+01 )

 nodal point  x-rot      y-rot       z-rot       x-rot vel   y-rot vel   z-rot vel   x-rot acc   y-rot acc   z-rot acc
    22626  2.58912E-01 1.38092E-01-6.39410E-02 1.57657E-02 6.33823E-03-3.84832E-03 2.40047E-04-1.17774E-04 5.56760E-06



 n o d a l   p r i n t   o u t   f o r   t i m e  s t e p   46005                              ( at time 2.2999698E+01 )

 nodal point  x-disp     y-disp      z-disp      x-vel       y-vel       z-vel      x-accl      y-accl      z-accl      x-coor      y-coor      z-coor
    22626  4.40126E+00 2.66346E-01-1.70708E+01 3.76259E-01-1.18397E-01 4.61971E-01 1.41574E-03 1.47089E-02-3.51139E-02 5.23654E+01-2.17634E+01-9.73229E+00



 n o d a l   p r i n t   o u t   f o r   t i m e  s t e p   46005                              ( at time 2.2999698E+01 )

 nodal point  x-rot      y-rot       z-rot       x-rot vel   y-rot vel   z-rot vel   x-rot acc   y-rot acc   z-rot acc
    22626  2.60490E-01 1.38726E-01-6.43242E-02 1.57966E-02 6.32452E-03-3.82562E-03 3.08501E-04-1.37168E-04 2.27007E-04



 n o d a l   p r i n t   o u t   f o r   t i m e  s t e p   46205                              ( at time 2.3099688E+01 )

 nodal point  x-disp     y-disp      z-disp      x-vel       y-vel       z-vel      x-accl      y-accl      z-accl      x-coor      y-coor      z-coor
    22626  4.43891E+00 2.54562E-01-1.70247E+01 3.77042E-01-1.17427E-01 4.60034E-01 7.83769E-03 9.69607E-03-1.93766E-02 5.24031E+01-2.17752E+01-9.68618E+00



 n o d a l   p r i n t   o u t   f o r   t i m e  s t e p   46205                              ( at time 2.3099688E+01 )

 nodal point  x-rot      y-rot       z-rot       x-rot vel   y-rot vel   z-rot vel   x-rot acc   y-rot acc   z-rot acc
    22626  2.62070E-01 1.39358E-01-6.47046E-02 1.58178E-02 6.30528E-03-3.79351E-03 2.12123E-04-1.92400E-04 3.21160E-04



 n o d a l   p r i n t   o u t   f o r   t i m e  s t e p   46405                              ( at time 2.3199678E+01 )

 nodal point  x-disp     y-disp      z-disp      x-vel       y-vel       z-vel      x-accl      y-accl      z-accl      x-coor      y-coor      z-coor
    22626  4.47664E+00 2.42801E-01-1.69788E+01 3.78138E-01-1.17298E-01 4.59584E-01 1.09560E-02 1.29056E-03-4.49937E-03 5.24408E+01-2.17870E+01-9.64027E+00



 n o d a l   p r i n t   o u t   f o r   t i m e  s t e p   46405                              ( at time 2.3199678E+01 )

 nodal point  x-rot      y-rot       z-rot       x-rot vel   y-rot vel   z-rot vel   x-rot acc   y-rot acc   z-rot acc
    22626  2.63653E-01 1.39987E-01-6.50813E-02 1.58409E-02 6.29734E-03-3.76307E-03 2.30989E-04-7.93653E-05 3.04417E-04



 n o d a l   p r i n t   o u t   f o r   t i m e  s t e p   46605                              ( at time 2.3299668E+01 )

 nodal point  x-disp     y-disp      z-disp      x-vel       y-vel       z-vel      x-accl      y-accl      z-accl      x-coor      y-coor      z-coor
    22626  4.51444E+00 2.31117E-01-1.69329E+01 3.78718E-01-1.16327E-01 4.57630E-01 5.80405E-03 9.71708E-03-1.95358E-02 5.24786E+01-2.17987E+01-9.59437E+00



 n o d a l   p r i n t   o u t   f o r   t i m e  s t e p   46605                              ( at time 2.3299668E+01 )

 nodal point  x-rot      y-rot       z-rot       x-rot vel   y-rot vel   z-rot vel   x-rot acc   y-rot acc   z-rot acc
    22626  2.65238E-01 1.40616E-01-6.54555E-02 1.58482E-02 6.26404E-03-3.72232E-03 7.28189E-05-3.33115E-04 4.07613E-04



 n o d a l   p r i n t   o u t   f o r   t i m e  s t e p   46805                              ( at time 2.3399658E+01 )

 nodal point  x-disp     y-disp      z-disp      x-vel       y-vel       z-vel      x-accl      y-accl      z-accl      x-coor      y-coor      z-coor
    22626  4.55229E+00 2.19539E-01-1.68871E+01 3.79087E-01-1.15747E-01 4.57879E-01 3.68599E-03 5.79291E-03 2.48813E-03 5.25165E+01-2.18103E+01-9.54861E+00



 n o d a l   p r i n t   o u t   f o r   t i m e  s t e p   46805                              ( at time 2.3399658E+01 )

 nodal point  x-rot      y-rot       z-rot       x-rot vel   y-rot vel   z-rot vel   x-rot acc   y-rot acc   z-rot acc
    22626  2.66822E-01 1.41241E-01-6.58252E-02 1.58380E-02 6.25532E-03-3.67524E-03-1.01319E-04-8.71332E-05 4.70824E-04



 n o d a l   p r i n t   o u t   f o r   t i m e  s t e p   47005                              ( at time 2.3499648E+01 )

 nodal point  x-disp     y-disp      z-disp      x-vel       y-vel       z-vel      x-accl      y-accl      z-accl      x-coor      y-coor      z-coor
    22626  4.59022E+00 2.07985E-01-1.68414E+01 3.79741E-01-1.15050E-01 4.55389E-01 6.54430E-03 6.97662E-03-2.49039E-02 5.25544E+01-2.18218E+01-9.50295E+00



 n o d a l   p r i n t   o u t   f o r   t i m e  s t e p   47005                              ( at time 2.3499648E+01 )

 nodal point  x-rot      y-rot       z-rot       x-rot vel   y-rot vel   z-rot vel   x-rot acc   y-rot acc   z-rot acc
    22626  2.68407E-01 1.41866E-01-6.61911E-02 1.58524E-02 6.23508E-03-3.64274E-03 1.43437E-04-2.02432E-04 3.25024E-04



 n o d a l   p r i n t   o u t   f o r   t i m e  s t e p   47205                              ( at time 2.3599638E+01 )

 nodal point  x-disp     y-disp      z-disp      x-vel       y-vel       z-vel      x-accl      y-accl      z-accl      x-coor      y-coor      z-coor
    22626  4.62814E+00 1.96476E-01-1.67959E+01 3.79207E-01-1.15465E-01 4.55310E-01-5.34117E-03-4.15595E-03-7.90743E-04 5.25923E+01-2.18333E+01-9.45744E+00



 n o d a l   p r i n t   o u t   f o r   t i m e  s t e p   47205                              ( at time 2.3599638E+01 )

 nodal point  x-rot      y-rot       z-rot       x-rot vel   y-rot vel   z-rot vel   x-rot acc   y-rot acc   z-rot acc
    22626  2.69992E-01 1.42487E-01-6.65545E-02 1.58609E-02 6.20732E-03-3.60541E-03 8.49274E-05-2.77649E-04 3.73283E-04



 n o d a l   p r i n t   o u t   f o r   t i m e  s t e p   47405                              ( at time 2.3699628E+01 )

 nodal point  x-disp     y-disp      z-disp      x-vel       y-vel       z-vel      x-accl      y-accl      z-accl      x-coor      y-coor      z-coor
    22626  4.66610E+00 1.84877E-01-1.67504E+01 3.79917E-01-1.16259E-01 4.54658E-01 7.10523E-03-7.93664E-03-6.51747E-03 5.26303E+01-2.18449E+01-9.41190E+00



 n o d a l   p r i n t   o u t   f o r   t i m e  s t e p   47405                              ( at time 2.3699628E+01 )

 nodal point  x-rot      y-rot       z-rot       x-rot vel   y-rot vel   z-rot vel   x-rot acc   y-rot acc   z-rot acc
    22626  2.71578E-01 1.43108E-01-6.69143E-02 1.58569E-02 6.19294E-03-3.57736E-03-3.95662E-05-1.43795E-04 2.80575E-04



 n o d a l   p r i n t   o u t   f o r   t i m e  s t e p   47605                              ( at time 2.3799618E+01 )

 nodal point  x-disp     y-disp      z-disp      x-vel       y-vel       z-vel      x-accl      y-accl      z-accl      x-coor      y-coor      z-coor
    22626  4.70409E+00 1.73229E-01-1.67050E+01 3.79917E-01-1.16536E-01 4.53665E-01-2.08639E-06-2.77401E-03-9.93600E-03 5.26683E+01-2.18566E+01-9.36653E+00



 n o d a l   p r i n t   o u t   f o r   t i m e  s t e p   47605                              ( at time 2.3799618E+01 )

 nodal point  x-rot      y-rot       z-rot       x-rot vel   y-rot vel   z-rot vel   x-rot acc   y-rot acc   z-rot acc
    22626  2.73165E-01 1.43726E-01-6.72701E-02 1.58787E-02 6.17883E-03-3.53718E-03 2.17935E-04-1.41116E-04 4.01819E-04



 n o d a l   p r i n t   o u t   f o r   t i m e  s t e p   47805                              ( at time 2.3899608E+01 )

 nodal point  x-disp     y-disp      z-disp      x-vel       y-vel       z-vel      x-accl      y-accl      z-accl      x-coor      y-coor      z-coor
    22626  4.74210E+00 1.61593E-01-1.66597E+01 3.80551E-01-1.16669E-01 4.51502E-01 6.33596E-03-1.32700E-03-2.16248E-02 5.27063E+01-2.18682E+01-9.32122E+00



 n o d a l   p r i n t   o u t   f o r   t i m e  s t e p   47805                              ( at time 2.3899608E+01 )

 nodal point  x-rot      y-rot       z-rot       x-rot vel   y-rot vel   z-rot vel   x-rot acc   y-rot acc   z-rot acc
    22626  2.74754E-01 1.44343E-01-6.76222E-02 1.59081E-02 6.15154E-03-3.50623E-03 2.93990E-04-2.72986E-04 3.09532E-04



 n o d a l   p r i n t   o u t   f o r   t i m e  s t e p   48005                              ( at time 2.3999598E+01 )

 nodal point  x-disp     y-disp      z-disp      x-vel       y-vel       z-vel      x-accl      y-accl      z-accl      x-coor      y-coor      z-coor
    22626  4.78015E+00 1.49944E-01-1.66147E+01 3.80336E-01-1.16398E-01 4.50549E-01-2.14690E-03 2.70963E-03-9.53124E-03 5.27443E+01-2.18798E+01-9.27617E+00



 n o d a l   p r i n t   o u t   f o r   t i m e  s t e p   48005                              ( at time 2.3999598E+01 )

 nodal point  x-rot      y-rot       z-rot       x-rot vel   y-rot vel   z-rot vel   x-rot acc   y-rot acc   z-rot acc
    22626  2.76345E-01 1.44956E-01-6.79714E-02 1.59177E-02 6.12919E-03-3.48091E-03 9.57692E-05-2.23454E-04 2.53206E-04



 n o d a l   p r i n t   o u t   f o r   t i m e  s t e p   48205                              ( at time 2.4099588E+01 )

 nodal point  x-disp     y-disp      z-disp      x-vel       y-vel       z-vel      x-accl      y-accl      z-accl      x-coor      y-coor      z-coor
    22626  4.81821E+00 1.38266E-01-1.65697E+01 3.80758E-01-1.16966E-01 4.49696E-01 4.22129E-03-5.67973E-03-8.53140E-03 5.27824E+01-2.18915E+01-9.23119E+00



 n o d a l   p r i n t   o u t   f o r   t i m e  s t e p   48205                              ( at time 2.4099588E+01 )

 nodal point  x-rot      y-rot       z-rot       x-rot vel   y-rot vel   z-rot vel   x-rot acc   y-rot acc   z-rot acc
    22626  2.77936E-01 1.45568E-01-6.83162E-02 1.59235E-02 6.10335E-03-3.43135E-03 5.83248E-05-2.58452E-04 4.95730E-04



 n o d a l   p r i n t   o u t   f o r   t i m e  s t e p   48405                              ( at time 2.4199578E+01 )

 nodal point  x-disp     y-disp      z-disp      x-vel       y-vel       z-vel      x-accl      y-accl      z-accl      x-coor      y-coor      z-coor
    22626  4.85628E+00 1.26568E-01-1.65248E+01 3.80712E-01-1.16909E-01 4.49033E-01-4.64968E-04 5.65711E-04-6.63712E-03 5.28205E+01-2.19032E+01-9.18626E+00



 n o d a l   p r i n t   o u t   f o r   t i m e  s t e p   48405                              ( at time 2.4199578E+01 )

 nodal point  x-rot      y-rot       z-rot       x-rot vel   y-rot vel   z-rot vel   x-rot acc   y-rot acc   z-rot acc
    22626  2.79529E-01 1.46177E-01-6.86568E-02 1.59307E-02 6.06813E-03-3.37836E-03 7.20737E-05-3.52261E-04 5.29888E-04



 n o d a l   p r i n t   o u t   f o r   t i m e  s t e p   48605                              ( at time 2.4299568E+01 )

 nodal point  x-disp     y-disp      z-disp      x-vel       y-vel       z-vel      x-accl      y-accl      z-accl      x-coor      y-coor      z-coor
    22626  4.89430E+00 1.14910E-01-1.64799E+01 3.80235E-01-1.16957E-01 4.48949E-01-4.77060E-03-4.77402E-04-8.32753E-04 5.28585E+01-2.19149E+01-9.14137E+00



 n o d a l   p r i n t   o u t   f o r   t i m e  s t e p   48605                              ( at time 2.4299568E+01 )

 nodal point  x-rot      y-rot       z-rot       x-rot vel   y-rot vel   z-rot vel   x-rot acc   y-rot acc   z-rot acc
    22626  2.81122E-01 1.46783E-01-6.89939E-02 1.59223E-02 6.05209E-03-3.34953E-03-8.38081E-05-1.60356E-04 2.88336E-04



 n o d a l   p r i n t   o u t   f o r   t i m e  s t e p   48805                              ( at time 2.4399558E+01 )

 nodal point  x-disp     y-disp      z-disp      x-vel       y-vel       z-vel      x-accl      y-accl      z-accl      x-coor      y-coor      z-coor
    22626  4.93233E+00 1.03181E-01-1.64351E+01 3.80416E-01-1.17504E-01 4.47075E-01 1.80857E-03-5.47005E-03-1.87468E-02 5.28965E+01-2.19266E+01-9.09655E+00



 n o d a l   p r i n t   o u t   f o r   t i m e  s t e p   48805                              ( at time 2.4399558E+01 )

 nodal point  x-rot      y-rot       z-rot       x-rot vel   y-rot vel   z-rot vel   x-rot acc   y-rot acc   z-rot acc
    22626  2.82715E-01 1.47386E-01-6.93271E-02 1.59450E-02 6.02414E-03-3.30683E-03 2.26537E-04-2.79529E-04 4.27030E-04



 n o d a l   p r i n t   o u t   f o r   t i m e  s t e p   49006                              ( at time 2.4500048E+01 )

 nodal point  x-disp     y-disp      z-disp      x-vel       y-vel       z-vel      x-accl      y-accl      z-accl      x-coor      y-coor      z-coor
    22626  4.97055E+00 9.13549E-02-1.63902E+01 3.79890E-01-1.18256E-01 4.46054E-01-5.22623E-03-7.48249E-03-1.01553E-02 5.29347E+01-2.19384E+01-9.05171E+00



 n o d a l   p r i n t   o u t   f o r   t i m e  s t e p   49006                              ( at time 2.4500048E+01 )

 nodal point  x-rot      y-rot       z-rot       x-rot vel   y-rot vel   z-rot vel   x-rot acc   y-rot acc   z-rot acc
    22626  2.84316E-01 1.47991E-01-6.96581E-02 1.59447E-02 5.99557E-03-3.27619E-03-3.28085E-06-2.84401E-04 3.04980E-04



 n o d a l   p r i n t   o u t   f o r   t i m e  s t e p   49206                              ( at time 2.4600038E+01 )

 nodal point  x-disp     y-disp      z-disp      x-vel       y-vel       z-vel      x-accl      y-accl      z-accl      x-coor      y-coor      z-coor
    22626  5.00861E+00 7.93765E-02-1.63456E+01 3.80567E-01-1.20558E-01 4.46129E-01 6.76604E-03-2.30193E-02 7.45722E-04 5.29728E+01-2.19504E+01-9.00706E+00



 n o d a l   p r i n t   o u t   f o r   t i m e  s t e p   49206                              ( at time 2.4600038E+01 )

 nodal point  x-rot      y-rot       z-rot       x-rot vel   y-rot vel   z-rot vel   x-rot acc   y-rot acc   z-rot acc
    22626  2.85910E-01 1.48591E-01-6.99855E-02 1.59301E-02 5.99819E-03-3.27030E-03-1.45467E-04 2.62098E-05 5.89069E-05



 n o d a l   p r i n t   o u t   f o r   t i m e  s t e p   49406                              ( at time 2.4700028E+01 )

 nodal point  x-disp     y-disp      z-disp      x-vel       y-vel       z-vel      x-accl      y-accl      z-accl      x-coor      y-coor      z-coor
    22626  5.04672E+00 6.72758E-02-1.63010E+01 3.81426E-01-1.21404E-01 4.46331E-01 8.59564E-03-8.46688E-03 2.02112E-03 5.30109E+01-2.19625E+01-8.96248E+00



 n o d a l   p r i n t   o u t   f o r   t i m e  s t e p   49406                              ( at time 2.4700028E+01 )

 nodal point  x-rot      y-rot       z-rot       x-rot vel   y-rot vel   z-rot vel   x-rot acc   y-rot acc   z-rot acc
    22626  2.87503E-01 1.49190E-01-7.03105E-02 1.59194E-02 5.99660E-03-3.23271E-03-1.07188E-04-1.58249E-05 3.75926E-04



 n o d a l   p r i n t   o u t   f o r   t i m e  s t e p   49606                              ( at time 2.4800018E+01 )

 nodal point  x-disp     y-disp      z-disp      x-vel       y-vel       z-vel      x-accl      y-accl      z-accl      x-coor      y-coor      z-coor
    22626  5.08482E+00 5.50250E-02-1.62563E+01 3.80436E-01-1.23544E-01 4.46880E-01-9.90571E-03-2.14012E-02 5.48651E-03 5.30490E+01-2.19748E+01-8.91781E+00



 n o d a l   p r i n t   o u t   f o r   t i m e  s t e p   49606                              ( at time 2.4800018E+01 )

 nodal point  x-rot      y-rot       z-rot       x-rot vel   y-rot vel   z-rot vel   x-rot acc   y-rot acc   z-rot acc
    22626  2.89095E-01 1.49788E-01-7.06336E-02 1.59258E-02 5.96096E-03-3.22645E-03 6.38387E-05-3.56478E-04 6.26092E-05



 n o d a l   p r i n t   o u t   f o r   t i m e  s t e p   49806                              ( at time 2.4900008E+01 )

 nodal point  x-disp     y-disp      z-disp      x-vel       y-vel       z-vel      x-accl      y-accl      z-accl      x-coor      y-coor      z-coor
    22626  5.12281E+00 4.26061E-02-1.62117E+01 3.79984E-01-1.25130E-01 4.45318E-01-4.51972E-03-1.58581E-02-1.56143E-02 5.30870E+01-2.19872E+01-8.87319E+00



 n o d a l   p r i n t   o u t   f o r   t i m e  s t e p   49806                              ( at time 2.4900008E+01 )

 nodal point  x-rot      y-rot       z-rot       x-rot vel   y-rot vel   z-rot vel   x-rot acc   y-rot acc   z-rot acc
    22626  2.90687E-01 1.50383E-01-7.09541E-02 1.59193E-02 5.94299E-03-3.19946E-03-6.53116E-05-1.79747E-04 2.69878E-04



 n o d a l   p r i n t   o u t   f o r   t i m e  s t e p   50006                              ( at time 2.4999998E+01 )

 nodal point  x-disp     y-disp      z-disp      x-vel       y-vel       z-vel      x-accl      y-accl      z-accl      x-coor      y-coor      z-coor
    22626  5.16083E+00 2.99815E-02-1.61672E+01 3.80148E-01-1.27557E-01 4.45592E-01 1.64196E-03-2.42779E-02 2.73551E-03 5.31250E+01-2.19998E+01-8.82869E+00



 n o d a l   p r i n t   o u t   f o r   t i m e  s t e p   50006                              ( at time 2.4999998E+01 )

 nodal point  x-rot      y-rot       z-rot       x-rot vel   y-rot vel   z-rot vel   x-rot acc   y-rot acc   z-rot acc
    22626  2.92279E-01 1.50977E-01-7.12738E-02 1.59296E-02 5.95799E-03-3.19511E-03 1.03312E-04 1.50059E-04 4.35014E-05
