 LSTC 50th% Full_FE H-III Dummy (Beta Version, February 17, 2019)        
                    ls-dyna smp s R16 R16.0_619_d222963 date 03/18/2025

{BEGIN LEGEND}
 Entity #        Title
    22626                                                                                     
{END LEGEND}




 n o d a l   p r i n t   o u t   f o r   t i m e  s t e p       1                              ( at time 0.0000000E+00 )

 nodal point  x-disp     y-disp      z-disp      x-vel       y-vel       z-vel      x-accl      y-accl      z-accl      x-coor      y-coor      z-coor
    22626  0.00000E+00 0.00000E+00 0.00000E+00 0.00000E+00 0.00000E+00-3.12000E+00 0.00000E+00 0.00000E+00 0.00000E+00 4.79642E+01-2.20298E+01 7.33850E+00



 n o d a l   p r i n t   o u t   f o r   t i m e  s t e p       1                              ( at time 0.0000000E+00 )

 nodal point  x-rot      y-rot       z-rot       x-rot vel   y-rot vel   z-rot vel   x-rot acc   y-rot acc   z-rot acc
    22626  0.00000E+00 0.00000E+00 0.00000E+00 0.00000E+00 0.00000E+00 0.00000E+00 0.00000E+00 0.00000E+00 0.00000E+00



 n o d a l   p r i n t   o u t   f o r   t i m e  s t e p     201                              ( at time 9.9989993E-02 )

 nodal point  x-disp     y-disp      z-disp      x-vel       y-vel       z-vel      x-accl      y-accl      z-accl      x-coor      y-coor      z-coor
    22626  8.34456E-07-4.04312E-06-3.12016E-01 4.76778E-05-4.96287E-04-3.12074E+00 4.76826E-04-4.96337E-03-7.42748E-03 4.79642E+01-2.20298E+01 7.02648E+00



 n o d a l   p r i n t   o u t   f o r   t i m e  s t e p     201                              ( at time 9.9989993E-02 )

 nodal point  x-rot      y-rot       z-rot       x-rot vel   y-rot vel   z-rot vel   x-rot acc   y-rot acc   z-rot acc
    22626  9.60811E-09 3.04228E-08 5.27314E-08 1.30687E-06 2.72326E-06 5.21358E-06 1.30700E-05 2.72354E-05 5.21410E-05



 n o d a l   p r i n t   o u t   f o r   t i m e  s t e p     401                              ( at time 1.9997999E-01 )

 nodal point  x-disp     y-disp      z-disp      x-vel       y-vel       z-vel      x-accl      y-accl      z-accl      x-coor      y-coor      z-coor
    22626 -5.12738E-05-5.21474E-04-6.23853E-01-1.09643E-03-1.11117E-02-3.11558E+00-1.14422E-02-1.06164E-01 5.16132E-02 4.79641E+01-2.20303E+01 6.71465E+00



 n o d a l   p r i n t   o u t   f o r   t i m e  s t e p     401                              ( at time 1.9997999E-01 )

 nodal point  x-rot      y-rot       z-rot       x-rot vel   y-rot vel   z-rot vel   x-rot acc   y-rot acc   z-rot acc
    22626  4.60279E-07 1.33020E-06 2.50284E-06 2.63041E-06 1.90765E-05 3.49887E-05 1.32367E-05 1.63549E-04 2.97781E-04



 n o d a l   p r i n t   o u t   f o r   t i m e  s t e p     601                              ( at time 2.9996998E-01 )

 nodal point  x-disp     y-disp      z-disp      x-vel       y-vel       z-vel      x-accl      y-accl      z-accl      x-coor      y-coor      z-coor
    22626 -2.45421E-05-1.97554E-03-9.35239E-01 1.66028E-03-1.60322E-02-3.11416E+00 2.75699E-02-4.92099E-02 1.42493E-02 4.79642E+01-2.20318E+01 6.40326E+00



 n o d a l   p r i n t   o u t   f o r   t i m e  s t e p     601                              ( at time 2.9996998E-01 )

 nodal point  x-rot      y-rot       z-rot       x-rot vel   y-rot vel   z-rot vel   x-rot acc   y-rot acc   z-rot acc
    22626  6.74988E-07 2.41692E-06 4.83676E-06 8.25740E-06 5.40743E-06 1.47839E-05 5.62755E-05-1.36705E-04-2.02068E-04



 n o d a l   p r i n t   o u t   f o r   t i m e  s t e p     801                              ( at time 3.9995997E-01 )

 nodal point  x-disp     y-disp      z-disp      x-vel       y-vel       z-vel      x-accl      y-accl      z-accl      x-coor      y-coor      z-coor
    22626  5.94381E-05-3.57156E-03-1.24663E+00 1.85413E-04-1.73737E-02-3.11354E+00-1.47502E-02-1.34167E-02 6.15658E-03 4.79642E+01-2.20334E+01 6.09187E+00



 n o d a l   p r i n t   o u t   f o r   t i m e  s t e p     801                              ( at time 3.9995997E-01 )

 nodal point  x-rot      y-rot       z-rot       x-rot vel   y-rot vel   z-rot vel   x-rot acc   y-rot acc   z-rot acc
    22626  1.58333E-06 3.68910E-06 6.69730E-06 6.29628E-06 2.42926E-05 3.83451E-05-1.96131E-05 1.88870E-04 2.35636E-04



 n o d a l   p r i n t   o u t   f o r   t i m e  s t e p    1001                              ( at time 4.9994997E-01 )

 nodal point  x-disp     y-disp      z-disp      x-vel       y-vel       z-vel      x-accl      y-accl      z-accl      x-coor      y-coor      z-coor
    22626  7.16861E-05-5.62677E-03-1.55783E+00 8.83964E-04-2.38140E-02-3.11087E+00 6.98621E-03-6.44100E-02 2.66722E-02 4.79643E+01-2.20354E+01 5.78067E+00



 n o d a l   p r i n t   o u t   f o r   t i m e  s t e p    1001                              ( at time 4.9994997E-01 )

 nodal point  x-rot      y-rot       z-rot       x-rot vel   y-rot vel   z-rot vel   x-rot acc   y-rot acc   z-rot acc
    22626  1.50073E-06 6.66150E-06 1.18629E-05-4.89149E-06 4.39202E-05 7.21762E-05-1.11889E-04 1.96296E-04 3.38345E-04



 n o d a l   p r i n t   o u t   f o r   t i m e  s t e p    1201                              ( at time 5.9993996E-01 )

 nodal point  x-disp     y-disp      z-disp      x-vel       y-vel       z-vel      x-accl      y-accl      z-accl      x-coor      y-coor      z-coor
    22626  5.24735E-05-8.12790E-03-1.86888E+00-5.50038E-04-2.60658E-02-3.11086E+00-1.43415E-02-2.25198E-02 1.07299E-04 4.79642E+01-2.20379E+01 5.46962E+00



 n o d a l   p r i n t   o u t   f o r   t i m e  s t e p    1201                              ( at time 5.9993996E-01 )

 nodal point  x-rot      y-rot       z-rot       x-rot vel   y-rot vel   z-rot vel   x-rot acc   y-rot acc   z-rot acc
    22626  1.26805E-06 9.91331E-06 1.78072E-05-2.05008E-06 2.65364E-05 5.34128E-05 2.84169E-05-1.73856E-04-1.87653E-04



 n o d a l   p r i n t   o u t   f o r   t i m e  s t e p    1401                              ( at time 6.9992995E-01 )

 nodal point  x-disp     y-disp      z-disp      x-vel       y-vel       z-vel      x-accl      y-accl      z-accl      x-coor      y-coor      z-coor
    22626  1.93443E-05-1.10065E-02-2.17977E+00 6.95322E-04-3.21944E-02-3.10774E+00 1.24549E-02-6.12918E-02 3.12479E-02 4.79642E+01-2.20408E+01 5.15873E+00



 n o d a l   p r i n t   o u t   f o r   t i m e  s t e p    1401                              ( at time 6.9992995E-01 )

 nodal point  x-rot      y-rot       z-rot       x-rot vel   y-rot vel   z-rot vel   x-rot acc   y-rot acc   z-rot acc
    22626  1.12858E-06 1.31204E-05 2.28101E-05-2.09346E-06 3.77050E-05 5.92140E-05-4.33777E-07 1.11697E-04 5.80174E-05



 n o d a l   p r i n t   o u t   f o r   t i m e  s t e p    1601                              ( at time 7.9991994E-01 )

 nodal point  x-disp     y-disp      z-disp      x-vel       y-vel       z-vel      x-accl      y-accl      z-accl      x-coor      y-coor      z-coor
    22626  1.30584E-04-1.45511E-02-2.49040E+00 1.35144E-03-3.67477E-02-3.10606E+00 6.56179E-03-4.55376E-02 1.68412E-02 4.79643E+01-2.20443E+01 4.84811E+00



 n o d a l   p r i n t   o u t   f o r   t i m e  s t e p    1601                              ( at time 7.9991994E-01 )

 nodal point  x-rot      y-rot       z-rot       x-rot vel   y-rot vel   z-rot vel   x-rot acc   y-rot acc   z-rot acc
    22626  1.06506E-06 1.72677E-05 2.97896E-05 3.33590E-06 4.89948E-05 7.65960E-05 5.42990E-05 1.12909E-04 1.73837E-04



 n o d a l   p r i n t   o u t   f o r   t i m e  s t e p    1801                              ( at time 8.9990994E-01 )

 nodal point  x-disp     y-disp      z-disp      x-vel       y-vel       z-vel      x-accl      y-accl      z-accl      x-coor      y-coor      z-coor
    22626  2.03369E-04-1.81867E-02-2.80106E+00-5.19741E-04-3.63494E-02-3.10747E+00-1.87136E-02 3.98348E-03-1.41611E-02 4.79644E+01-2.20480E+01 4.53745E+00



 n o d a l   p r i n t   o u t   f o r   t i m e  s t e p    1801                              ( at time 8.9990994E-01 )

 nodal point  x-rot      y-rot       z-rot       x-rot vel   y-rot vel   z-rot vel   x-rot acc   y-rot acc   z-rot acc
    22626  1.12461E-06 2.14082E-05 3.68291E-05-1.32661E-06 3.81471E-05 6.86615E-05-4.66298E-05-1.08489E-04-7.93523E-05



 n o d a l   p r i n t   o u t   f o r   t i m e  s t e p    2001                              ( at time 9.9989993E-01 )

 nodal point  x-disp     y-disp      z-disp      x-vel       y-vel       z-vel      x-accl      y-accl      z-accl      x-coor      y-coor      z-coor
    22626  1.03999E-04-2.18890E-02-3.11178E+00-8.44058E-04-3.82580E-02-3.10767E+00-3.24349E-03-1.90884E-02-2.01961E-03 4.79643E+01-2.20517E+01 4.22672E+00



 n o d a l   p r i n t   o u t   f o r   t i m e  s t e p    2001                              ( at time 9.9989993E-01 )

 nodal point  x-rot      y-rot       z-rot       x-rot vel   y-rot vel   z-rot vel   x-rot acc   y-rot acc   z-rot acc
    22626  1.00967E-06 2.56545E-05 4.40898E-05-3.11368E-07 4.65003E-05 8.66147E-05 1.01535E-05 8.35406E-05 1.79550E-04



 n o d a l   p r i n t   o u t   f o r   t i m e  s t e p    2201                              ( at time 1.0998899E+00 )

 nodal point  x-disp     y-disp      z-disp      x-vel       y-vel       z-vel      x-accl      y-accl      z-accl      x-coor      y-coor      z-coor
    22626  8.31410E-05-2.58239E-02-3.42249E+00-2.56969E-04-4.01490E-02-3.10718E+00 5.87148E-03-1.89121E-02 4.88807E-03 4.79643E+01-2.20556E+01 3.91601E+00



 n o d a l   p r i n t   o u t   f o r   t i m e  s t e p    2201                              ( at time 1.0998899E+00 )

 nodal point  x-rot      y-rot       z-rot       x-rot vel   y-rot vel   z-rot vel   x-rot acc   y-rot acc   z-rot acc
    22626  1.14553E-06 3.04663E-05 5.27808E-05 5.93479E-06 4.64471E-05 7.51581E-05 6.24678E-05-5.31453E-07-1.14578E-04



 n o d a l   p r i n t   o u t   f o r   t i m e  s t e p    2401                              ( at time 1.1998799E+00 )

 nodal point  x-disp     y-disp      z-disp      x-vel       y-vel       z-vel      x-accl      y-accl      z-accl      x-coor      y-coor      z-coor
    22626  1.21764E-04-2.98277E-02-3.73324E+00 7.02818E-04-3.96466E-02-3.10860E+00 9.59882E-03 5.02532E-03-1.41229E-02 4.79643E+01-2.20596E+01 3.60526E+00



 n o d a l   p r i n t   o u t   f o r   t i m e  s t e p    2401                              ( at time 1.1998799E+00 )

 nodal point  x-rot      y-rot       z-rot       x-rot vel   y-rot vel   z-rot vel   x-rot acc   y-rot acc   z-rot acc
    22626  1.60982E-06 3.46391E-05 5.96786E-05 5.76300E-06 4.02823E-05 6.63797E-05-1.71800E-06-6.16551E-05-8.77927E-05



 n o d a l   p r i n t   o u t   f o r   t i m e  s t e p    2601                              ( at time 1.2998699E+00 )

 nodal point  x-disp     y-disp      z-disp      x-vel       y-vel       z-vel      x-accl      y-accl      z-accl      x-coor      y-coor      z-coor
    22626  1.31311E-04-3.36512E-02-4.04419E+00-4.50089E-04-3.64433E-02-3.11144E+00-1.15302E-02 3.20357E-02-2.84819E-02 4.79643E+01-2.20634E+01 3.29432E+00



 n o d a l   p r i n t   o u t   f o r   t i m e  s t e p    2601                              ( at time 1.2998699E+00 )

 nodal point  x-rot      y-rot       z-rot       x-rot vel   y-rot vel   z-rot vel   x-rot acc   y-rot acc   z-rot acc
    22626  1.99080E-06 3.87677E-05 6.65889E-05-1.63418E-06 4.59180E-05 8.08932E-05-7.39792E-05 5.63628E-05 1.45149E-04



 n o d a l   p r i n t   o u t   f o r   t i m e  s t e p    2801                              ( at time 1.3998599E+00 )

 nodal point  x-disp     y-disp      z-disp      x-vel       y-vel       z-vel      x-accl      y-accl      z-accl      x-coor      y-coor      z-coor
    22626  1.30300E-05-3.70295E-02-4.35550E+00-1.34169E-03-3.12667E-02-3.11524E+00-8.91686E-03 5.17713E-02-3.79529E-02 4.79642E+01-2.20668E+01 2.98300E+00



 n o d a l   p r i n t   o u t   f o r   t i m e  s t e p    2801                              ( at time 1.3998599E+00 )

 nodal point  x-rot      y-rot       z-rot       x-rot vel   y-rot vel   z-rot vel   x-rot acc   y-rot acc   z-rot acc
    22626  1.65830E-06 4.32126E-05 7.45150E-05-3.72656E-06 4.52029E-05 7.43380E-05-2.09259E-05-7.15120E-06-6.55581E-05



 n o d a l   p r i n t   o u t   f o r   t i m e  s t e p    3001                              ( at time 1.4998499E+00 )

 nodal point  x-disp     y-disp      z-disp      x-vel       y-vel       z-vel      x-accl      y-accl      z-accl      x-coor      y-coor      z-coor
    22626 -9.86473E-05-4.00557E-02-4.66710E+00-4.90856E-04-2.95838E-02-3.11726E+00 8.50915E-03 1.68311E-02-2.01651E-02 4.79641E+01-2.20698E+01 2.67140E+00



 n o d a l   p r i n t   o u t   f o r   t i m e  s t e p    3001                              ( at time 1.4998499E+00 )

 nodal point  x-rot      y-rot       z-rot       x-rot vel   y-rot vel   z-rot vel   x-rot acc   y-rot acc   z-rot acc
    22626  1.36976E-06 4.71897E-05 8.11696E-05-4.63737E-07 3.24452E-05 5.81955E-05 3.26315E-05-1.27590E-04-1.61441E-04



 n o d a l   p r i n t   o u t   f o r   t i m e  s t e p    3201                              ( at time 1.5998399E+00 )

 nodal point  x-disp     y-disp      z-disp      x-vel       y-vel       z-vel      x-accl      y-accl      z-accl      x-coor      y-coor      z-coor
    22626 -1.49383E-04-4.29314E-02-4.97888E+00-7.78197E-04-2.73696E-02-3.11954E+00-2.87370E-03 2.21436E-02-2.28213E-02 4.79640E+01-2.20727E+01 2.35962E+00



 n o d a l   p r i n t   o u t   f o r   t i m e  s t e p    3201                              ( at time 1.5998399E+00 )

 nodal point  x-rot      y-rot       z-rot       x-rot vel   y-rot vel   z-rot vel   x-rot acc   y-rot acc   z-rot acc
    22626  1.18672E-06 5.02713E-05 8.61163E-05-2.49817E-07 3.26995E-05 4.85659E-05 2.13941E-06 2.54327E-06-9.63055E-05



 n o d a l   p r i n t   o u t   f o r   t i m e  s t e p    3401                              ( at time 1.6998299E+00 )

 nodal point  x-disp     y-disp      z-disp      x-vel       y-vel       z-vel      x-accl      y-accl      z-accl      x-coor      y-coor      z-coor
    22626 -2.40308E-04-4.54319E-02-5.29099E+00-1.14668E-03-2.23106E-02-3.12335E+00-3.68516E-03 5.05952E-02-3.80864E-02 4.79639E+01-2.20752E+01 2.04751E+00



 n o d a l   p r i n t   o u t   f o r   t i m e  s t e p    3401                              ( at time 1.6998299E+00 )

 nodal point  x-rot      y-rot       z-rot       x-rot vel   y-rot vel   z-rot vel   x-rot acc   y-rot acc   z-rot acc
    22626  1.07314E-06 5.34072E-05 9.12246E-05-3.03158E-06 3.08399E-05 4.88202E-05-2.78205E-05-1.85976E-05 2.54342E-06



 n o d a l   p r i n t   o u t   f o r   t i m e  s t e p    3601                              ( at time 1.7998199E+00 )

 nodal point  x-disp     y-disp      z-disp      x-vel       y-vel       z-vel      x-accl      y-accl      z-accl      x-coor      y-coor      z-coor
    22626 -3.43230E-04-4.74072E-02-5.60351E+00-1.35421E-03-1.75621E-02-3.12743E+00-2.07555E-03 4.74902E-02-4.08047E-02 4.79638E+01-2.20772E+01 1.73499E+00



 n o d a l   p r i n t   o u t   f o r   t i m e  s t e p    3601                              ( at time 1.7998199E+00 )

 nodal point  x-rot      y-rot       z-rot       x-rot vel   y-rot vel   z-rot vel   x-rot acc   y-rot acc   z-rot acc
    22626  1.01888E-06 5.62662E-05 9.60872E-05 7.75331E-07 2.18748E-05 4.31448E-05 3.80730E-05-8.96606E-05-5.67601E-05



 n o d a l   p r i n t   o u t   f o r   t i m e  s t e p    3801                              ( at time 1.8998099E+00 )

 nodal point  x-disp     y-disp      z-disp      x-vel       y-vel       z-vel      x-accl      y-accl      z-accl      x-coor      y-coor      z-coor
    22626 -5.33139E-04-4.90283E-02-5.91634E+00-2.15951E-03-1.50152E-02-3.12998E+00-8.05376E-03 2.54708E-02-2.55110E-02 4.79636E+01-2.20788E+01 1.42216E+00



 n o d a l   p r i n t   o u t   f o r   t i m e  s t e p    3801                              ( at time 1.8998099E+00 )

 nodal point  x-rot      y-rot       z-rot       x-rot vel   y-rot vel   z-rot vel   x-rot acc   y-rot acc   z-rot acc
    22626  8.97029E-07 5.82260E-05 9.95979E-05 2.66415E-06 1.64795E-05 2.85693E-05 1.88901E-05-5.39581E-05-1.45769E-04



 n o d a l   p r i n t   o u t   f o r   t i m e  s t e p    4001                              ( at time 1.9997999E+00 )

 nodal point  x-disp     y-disp      z-disp      x-vel       y-vel       z-vel      x-accl      y-accl      z-accl      x-coor      y-coor      z-coor
    22626 -7.06290E-04-5.04072E-02-6.22943E+00-1.65732E-03-1.27110E-02-3.13218E+00 5.02234E-03 2.30443E-02-2.20345E-02 4.79635E+01-2.20802E+01 1.10907E+00



 n o d a l   p r i n t   o u t   f o r   t i m e  s t e p    4001                              ( at time 1.9997999E+00 )

 nodal point  x-rot      y-rot       z-rot       x-rot vel   y-rot vel   z-rot vel   x-rot acc   y-rot acc   z-rot acc
    22626  1.19587E-06 5.96454E-05 1.02002E-04 4.47637E-06 1.38358E-05 2.05274E-05 1.81240E-05-2.64395E-05-8.04269E-05



 n o d a l   p r i n t   o u t   f o r   t i m e  s t e p    4201                              ( at time 2.0997899E+00 )

 nodal point  x-disp     y-disp      z-disp      x-vel       y-vel       z-vel      x-accl      y-accl      z-accl      x-coor      y-coor      z-coor
    22626 -8.77312E-04-5.14911E-02-6.54277E+00-1.87514E-03-9.07822E-03-3.13527E+00-2.17843E-03 3.63317E-02-3.08711E-02 4.79633E+01-2.20813E+01 7.95728E-01



 n o d a l   p r i n t   o u t   f o r   t i m e  s t e p    4201                              ( at time 2.0997899E+00 )

 nodal point  x-rot      y-rot       z-rot       x-rot vel   y-rot vel   z-rot vel   x-rot acc   y-rot acc   z-rot acc
    22626  1.58239E-06 6.03107E-05 1.03133E-04-2.08200E-07 3.62864E-06 2.10273E-06-4.68504E-05-1.02082E-04-1.84265E-04



 n o d a l   p r i n t   o u t   f o r   t i m e  s t e p    4401                              ( at time 2.1997798E+00 )

 nodal point  x-disp     y-disp      z-disp      x-vel       y-vel       z-vel      x-accl      y-accl      z-accl      x-coor      y-coor      z-coor
    22626 -1.11856E-03-5.21685E-02-6.85644E+00-2.72807E-03-4.28947E-03-3.13903E+00-8.53015E-03 4.78924E-02-3.76167E-02 4.79631E+01-2.20820E+01 4.82057E-01



 n o d a l   p r i n t   o u t   f o r   t i m e  s t e p    4401                              ( at time 2.1997798E+00 )

 nodal point  x-rot      y-rot       z-rot       x-rot vel   y-rot vel   z-rot vel   x-rot acc   y-rot acc   z-rot acc
    22626  1.49303E-06 6.04075E-05 1.03184E-04-5.54508E-07-1.00002E-06-1.76411E-06-3.46343E-06-4.62913E-05-3.86724E-05



 n o d a l   p r i n t   o u t   f o r   t i m e  s t e p    4601                              ( at time 2.2997698E+00 )

 nodal point  x-disp     y-disp      z-disp      x-vel       y-vel       z-vel      x-accl      y-accl      z-accl      x-coor      y-coor      z-coor
    22626 -1.42494E-03-5.23536E-02-7.17050E+00-3.48937E-03-2.68064E-05-3.14236E+00-7.61377E-03 4.26308E-02-3.33485E-02 4.79628E+01-2.20821E+01 1.67999E-01



 n o d a l   p r i n t   o u t   f o r   t i m e  s t e p    4601                              ( at time 2.2997698E+00 )

 nodal point  x-rot      y-rot       z-rot       x-rot vel   y-rot vel   z-rot vel   x-rot acc   y-rot acc   z-rot acc
    22626  1.16544E-06 6.01815E-05 1.02898E-04-3.80260E-06-8.93002E-06-1.21654E-05-3.24842E-05-7.93078E-05-1.04023E-04



 n o d a l   p r i n t   o u t   f o r   t i m e  s t e p    4801                              ( at time 2.3997598E+00 )

 nodal point  x-disp     y-disp      z-disp      x-vel       y-vel       z-vel      x-accl      y-accl      z-accl      x-coor      y-coor      z-coor
    22626 -1.79178E-03-5.22601E-02-7.48481E+00-3.55765E-03 1.88873E-03-3.14445E+00-6.82796E-04 1.91573E-02-2.09067E-02 4.79624E+01-2.20821E+01-1.46308E-01



 n o d a l   p r i n t   o u t   f o r   t i m e  s t e p    4801                              ( at time 2.3997598E+00 )

 nodal point  x-rot      y-rot       z-rot       x-rot vel   y-rot vel   z-rot vel   x-rot acc   y-rot acc   z-rot acc
    22626  7.24645E-07 5.89713E-05 1.00454E-04-4.92505E-06-1.52548E-05-3.29591E-05-1.12255E-05-6.32542E-05-2.07958E-04



 n o d a l   p r i n t   o u t   f o r   t i m e  s t e p    5001                              ( at time 2.4997498E+00 )

 nodal point  x-disp     y-disp      z-disp      x-vel       y-vel       z-vel      x-accl      y-accl      z-accl      x-coor      y-coor      z-coor
    22626 -2.18146E-03-5.19520E-02-7.79934E+00-4.22774E-03 4.96140E-03-3.14715E+00-6.70156E-03 3.07297E-02-2.69797E-02 4.79620E+01-2.20817E+01-4.60839E-01



 n o d a l   p r i n t   o u t   f o r   t i m e  s t e p    5001                              ( at time 2.4997498E+00 )

 nodal point  x-rot      y-rot       z-rot       x-rot vel   y-rot vel   z-rot vel   x-rot acc   y-rot acc   z-rot acc
    22626  3.69887E-07 5.68122E-05 9.65411E-05-3.23264E-06-2.60049E-05-4.81574E-05 1.69257E-05-1.07512E-04-1.51998E-04



 n o d a l   p r i n t   o u t   f o r   t i m e  s t e p    5201                              ( at time 2.5997398E+00 )

 nodal point  x-disp     y-disp      z-disp      x-vel       y-vel       z-vel      x-accl      y-accl      z-accl      x-coor      y-coor      z-coor
    22626 -2.65190E-03-5.12329E-02-8.11421E+00-5.22032E-03 9.37568E-03-3.15078E+00-9.92682E-03 4.41473E-02-3.62934E-02 4.79615E+01-2.20810E+01-7.75710E-01



 n o d a l   p r i n t   o u t   f o r   t i m e  s t e p    5201                              ( at time 2.5997398E+00 )

 nodal point  x-rot      y-rot       z-rot       x-rot vel   y-rot vel   z-rot vel   x-rot acc   y-rot acc   z-rot acc
    22626  7.33897E-08 5.37907E-05 9.12085E-05-4.01750E-06-3.48901E-05-6.13724E-05-7.84938E-06-8.88608E-05-1.32164E-04



 n o d a l   p r i n t   o u t   f o r   t i m e  s t e p    5401                              ( at time 2.6997298E+00 )

 nodal point  x-disp     y-disp      z-disp      x-vel       y-vel       z-vel      x-accl      y-accl      z-accl      x-coor      y-coor      z-coor
    22626 -3.21647E-03-5.00896E-02-8.42943E+00-6.36145E-03 1.30142E-02-3.15422E+00-1.14124E-02 3.63892E-02-3.44477E-02 4.79610E+01-2.20799E+01-1.09093E+00



 n o d a l   p r i n t   o u t   f o r   t i m e  s t e p    5401                              ( at time 2.6997298E+00 )

 nodal point  x-rot      y-rot       z-rot       x-rot vel   y-rot vel   z-rot vel   x-rot acc   y-rot acc   z-rot acc
    22626 -1.81684E-07 5.01518E-05 8.48003E-05-1.43008E-06-4.06297E-05-6.63614E-05 2.58767E-05-5.74018E-05-4.98951E-05



 n o d a l   p r i n t   o u t   f o r   t i m e  s t e p    5601                              ( at time 2.7997198E+00 )

 nodal point  x-disp     y-disp      z-disp      x-vel       y-vel       z-vel      x-accl      y-accl      z-accl      x-coor      y-coor      z-coor
    22626 -3.92257E-03-4.86640E-02-8.74494E+00-7.58733E-03 1.51823E-02-3.15640E+00-1.22601E-02 2.16824E-02-2.17913E-02 4.79603E+01-2.20785E+01-1.40644E+00



 n o d a l   p r i n t   o u t   f o r   t i m e  s t e p    5601                              ( at time 2.7997198E+00 )

 nodal point  x-rot      y-rot       z-rot       x-rot vel   y-rot vel   z-rot vel   x-rot acc   y-rot acc   z-rot acc
    22626 -2.53947E-07 4.53414E-05 7.67696E-05 1.00296E-06-5.62818E-05-9.71727E-05 2.43329E-05-1.56537E-04-3.08144E-04



 n o d a l   p r i n t   o u t   f o r   t i m e  s t e p    5801                              ( at time 2.8997098E+00 )

 nodal point  x-disp     y-disp      z-disp      x-vel       y-vel       z-vel      x-accl      y-accl      z-accl      x-coor      y-coor      z-coor
    22626 -4.68581E-03-4.70913E-02-9.06064E+00-7.76657E-03 1.61786E-02-3.15811E+00-1.79254E-03 9.96391E-03-1.70653E-02 4.79595E+01-2.20769E+01-1.72214E+00



 n o d a l   p r i n t   o u t   f o r   t i m e  s t e p    5801                              ( at time 2.8997098E+00 )

 nodal point  x-rot      y-rot       z-rot       x-rot vel   y-rot vel   z-rot vel   x-rot acc   y-rot acc   z-rot acc
    22626  1.37988E-08 3.90053E-05 6.59756E-05 3.12073E-06-6.58790E-05-1.14821E-04 2.11799E-05-9.59808E-05-1.76500E-04



 n o d a l   p r i n t   o u t   f o r   t i m e  s t e p    6001                              ( at time 2.9996998E+00 )

 nodal point  x-disp     y-disp      z-disp      x-vel       y-vel       z-vel      x-accl      y-accl      z-accl      x-coor      y-coor      z-coor
    22626 -5.50301E-03-4.53584E-02-9.37653E+00-8.80490E-03 1.86525E-02-3.16046E+00-1.03844E-02 2.47421E-02-2.35056E-02 4.79587E+01-2.20751E+01-2.03802E+00



 n o d a l   p r i n t   o u t   f o r   t i m e  s t e p    6001                              ( at time 2.9996998E+00 )

 nodal point  x-rot      y-rot       z-rot       x-rot vel   y-rot vel   z-rot vel   x-rot acc   y-rot acc   z-rot acc
    22626  3.16256E-07 3.21999E-05 5.44425E-05 1.28387E-06-7.01548E-05-1.20327E-04-1.83704E-05-4.27630E-05-5.50657E-05



 n o d a l   p r i n t   o u t   f o r   t i m e  s t e p    6201                              ( at time 3.0996898E+00 )

 nodal point  x-disp     y-disp      z-disp      x-vel       y-vel       z-vel      x-accl      y-accl      z-accl      x-coor      y-coor      z-coor
    22626 -6.46025E-03-4.33693E-02-9.69266E+00-1.02613E-02 2.06775E-02-3.16245E+00-1.45658E-02 2.02519E-02-1.98957E-02 4.79577E+01-2.20732E+01-2.35415E+00



 n o d a l   p r i n t   o u t   f o r   t i m e  s t e p    6201                              ( at time 3.0996898E+00 )

 nodal point  x-rot      y-rot       z-rot       x-rot vel   y-rot vel   z-rot vel   x-rot acc   y-rot acc   z-rot acc
    22626  3.16501E-07 2.49835E-05 4.19805E-05-1.65505E-06-7.38733E-05-1.31152E-04-2.93922E-05-3.71882E-05-1.08260E-04



 n o d a l   p r i n t   o u t   f o r   t i m e  s t e p    6401                              ( at time 3.1996798E+00 )

 nodal point  x-disp     y-disp      z-disp      x-vel       y-vel       z-vel      x-accl      y-accl      z-accl      x-coor      y-coor      z-coor
    22626 -7.51981E-03-4.13309E-02-1.00089E+01-1.08489E-02 1.97878E-02-3.16304E+00-5.87581E-03-8.89758E-03-5.92767E-03 4.79567E+01-2.20711E+01-2.67041E+00



 n o d a l   p r i n t   o u t   f o r   t i m e  s t e p    6401                              ( at time 3.1996798E+00 )

 nodal point  x-rot      y-rot       z-rot       x-rot vel   y-rot vel   z-rot vel   x-rot acc   y-rot acc   z-rot acc
    22626  2.12779E-07 1.70212E-05 2.85201E-05-1.20738E-06-8.49562E-05-1.43368E-04 4.47720E-06-1.10841E-04-1.22173E-04



 n o d a l   p r i n t   o u t   f o r   t i m e  s t e p    6601                              ( at time 3.2996698E+00 )

 nodal point  x-disp     y-disp      z-disp      x-vel       y-vel       z-vel      x-accl      y-accl      z-accl      x-coor      y-coor      z-coor
    22626 -8.61818E-03-3.94476E-02-1.03252E+01-1.10838E-02 1.78646E-02-3.16274E+00-2.34955E-03-1.92339E-02 3.00199E-03 4.79556E+01-2.20692E+01-2.98667E+00



 n o d a l   p r i n t   o u t   f o r   t i m e  s t e p    6601                              ( at time 3.2996698E+00 )

 nodal point  x-rot      y-rot       z-rot       x-rot vel   y-rot vel   z-rot vel   x-rot acc   y-rot acc   z-rot acc
    22626 -1.76333E-08 8.39967E-06 1.38341E-05-2.37717E-06-8.82877E-05-1.50139E-04-1.16991E-05-3.33177E-05-6.77178E-05



 n o d a l   p r i n t   o u t   f o r   t i m e  s t e p    6801                              ( at time 3.3996598E+00 )

 nodal point  x-disp     y-disp      z-disp      x-vel       y-vel       z-vel      x-accl      y-accl      z-accl      x-coor      y-coor      z-coor
    22626 -9.75545E-03-3.77500E-02-1.06414E+01-1.15882E-02 1.61024E-02-3.16266E+00-5.04495E-03-1.76236E-02 8.01165E-04 4.79544E+01-2.20675E+01-3.30291E+00



 n o d a l   p r i n t   o u t   f o r   t i m e  s t e p    6801                              ( at time 3.3996598E+00 )

 nodal point  x-rot      y-rot       z-rot       x-rot vel   y-rot vel   z-rot vel   x-rot acc   y-rot acc   z-rot acc
    22626 -5.37256E-08-3.57474E-07-1.30212E-06-2.19410E-06-8.73829E-05-1.52235E-04 1.83088E-06 9.04891E-06-2.09666E-05



 n o d a l   p r i n t   o u t   f o r   t i m e  s t e p    7001                              ( at time 3.4996498E+00 )

 nodal point  x-disp     y-disp      z-disp      x-vel       y-vel       z-vel      x-accl      y-accl      z-accl      x-coor      y-coor      z-coor
    22626 -1.09475E-02-3.62103E-02-1.09577E+01-1.22739E-02 1.46702E-02-3.16295E+00-6.85741E-03-1.43236E-02-2.83508E-03 4.79532E+01-2.20660E+01-3.61916E+00



 n o d a l   p r i n t   o u t   f o r   t i m e  s t e p    7001                              ( at time 3.4996498E+00 )

 nodal point  x-rot      y-rot       z-rot       x-rot vel   y-rot vel   z-rot vel   x-rot acc   y-rot acc   z-rot acc
    22626 -3.64809E-09-8.95149E-06-1.60139E-05 9.12719E-07-8.63714E-05-1.46106E-04 3.10713E-05 1.01154E-05 6.12976E-05



 n o d a l   p r i n t   o u t   f o r   t i m e  s t e p    7201                              ( at time 3.5996397E+00 )

 nodal point  x-disp     y-disp      z-disp      x-vel       y-vel       z-vel      x-accl      y-accl      z-accl      x-coor      y-coor      z-coor
    22626 -1.21906E-02-3.48521E-02-1.12739E+01-1.22731E-02 1.21583E-02-3.16265E+00 7.68419E-06-2.51221E-02 2.98530E-03 4.79520E+01-2.20646E+01-3.93541E+00



 n o d a l   p r i n t   o u t   f o r   t i m e  s t e p    7201                              ( at time 3.5996397E+00 )

 nodal point  x-rot      y-rot       z-rot       x-rot vel   y-rot vel   z-rot vel   x-rot acc   y-rot acc   z-rot acc
    22626 -3.57178E-08-1.74095E-05-3.02741E-05 1.75829E-06-8.33362E-05-1.37048E-04 8.45661E-06 3.03557E-05 9.05897E-05



 n o d a l   p r i n t   o u t   f o r   t i m e  s t e p    7401                              ( at time 3.6996297E+00 )

 nodal point  x-disp     y-disp      z-disp      x-vel       y-vel       z-vel      x-accl      y-accl      z-accl      x-coor      y-coor      z-coor
    22626 -1.34052E-02-3.38058E-02-1.15901E+01-1.19897E-02 8.79566E-03-3.16166E+00 2.83470E-03-3.36295E-02 9.89296E-03 4.79508E+01-2.20636E+01-4.25160E+00



 n o d a l   p r i n t   o u t   f o r   t i m e  s t e p    7401                              ( at time 3.6996297E+00 )

 nodal point  x-rot      y-rot       z-rot       x-rot vel   y-rot vel   z-rot vel   x-rot acc   y-rot acc   z-rot acc
    22626  2.57523E-07-2.56092E-05-4.39415E-05 4.45860E-06-8.06185E-05-1.35669E-04 2.70057E-05 2.71795E-05 1.37979E-05



 n o d a l   p r i n t   o u t   f o r   t i m e  s t e p    7601                              ( at time 3.7996197E+00 )

 nodal point  x-disp     y-disp      z-disp      x-vel       y-vel       z-vel      x-accl      y-accl      z-accl      x-coor      y-coor      z-coor
    22626 -1.45773E-02-3.30565E-02-1.19062E+01-1.14937E-02 6.16306E-03-3.16098E+00 4.96013E-03-2.63287E-02 6.73601E-03 4.79496E+01-2.20628E+01-4.56769E+00



 n o d a l   p r i n t   o u t   f o r   t i m e  s t e p    7601                              ( at time 3.7996197E+00 )

 nodal point  x-rot      y-rot       z-rot       x-rot vel   y-rot vel   z-rot vel   x-rot acc   y-rot acc   z-rot acc
    22626  7.21971E-07-3.33130E-05-5.70546E-05 5.01185E-06-7.08528E-05-1.19736E-04 5.53304E-06 9.76669E-05 1.59344E-04



 n o d a l   p r i n t   o u t   f o r   t i m e  s t e p    7801                              ( at time 3.8996097E+00 )

 nodal point  x-disp     y-disp      z-disp      x-vel       y-vel       z-vel      x-accl      y-accl      z-accl      x-coor      y-coor      z-coor
    22626 -1.56958E-02-3.25420E-02-1.22223E+01-1.08532E-02 4.38501E-03-3.16093E+00 6.40615E-03-1.77822E-02 5.74645E-04 4.79485E+01-2.20623E+01-4.88375E+00



 n o d a l   p r i n t   o u t   f o r   t i m e  s t e p    7801                              ( at time 3.8996097E+00 )

 nodal point  x-rot      y-rot       z-rot       x-rot vel   y-rot vel   z-rot vel   x-rot acc   y-rot acc   z-rot acc
    22626  1.04182E-06-3.98023E-05-6.79845E-05 2.69103E-07-5.70982E-05-9.39593E-05-4.74321E-05 1.37560E-04 2.57790E-04



 n o d a l   p r i n t   o u t   f o r   t i m e  s t e p    8001                              ( at time 3.9995997E+00 )

 nodal point  x-disp     y-disp      z-disp      x-vel       y-vel       z-vel      x-accl      y-accl      z-accl      x-coor      y-coor      z-coor
    22626 -1.67545E-02-3.21463E-02-1.25383E+01-1.02760E-02 3.44567E-03-3.16119E+00 5.77270E-03-9.39438E-03-2.65625E-03 4.79474E+01-2.20619E+01-5.19984E+00



 n o d a l   p r i n t   o u t   f o r   t i m e  s t e p    8001                              ( at time 3.9995997E+00 )

 nodal point  x-rot      y-rot       z-rot       x-rot vel   y-rot vel   z-rot vel   x-rot acc   y-rot acc   z-rot acc
    22626  1.06173E-06-4.49493E-05-7.64297E-05-2.03327E-06-4.51414E-05-7.73960E-05-2.30261E-05 1.19580E-04 1.65650E-04



 n o d a l   p r i n t   o u t   f o r   t i m e  s t e p    8201                              ( at time 4.0995897E+00 )

 nodal point  x-disp     y-disp      z-disp      x-vel       y-vel       z-vel      x-accl      y-accl      z-accl      x-coor      y-coor      z-coor
    22626 -1.76988E-02-3.19223E-02-1.28544E+01-8.47840E-03 8.29419E-04-3.16072E+00 1.79775E-02-2.61651E-02 4.69969E-03 4.79465E+01-2.20617E+01-5.51590E+00



 n o d a l   p r i n t   o u t   f o r   t i m e  s t e p    8201                              ( at time 4.0995897E+00 )

 nodal point  x-rot      y-rot       z-rot       x-rot vel   y-rot vel   z-rot vel   x-rot acc   y-rot acc   z-rot acc
    22626  8.60367E-07-4.89842E-05-8.31618E-05-2.23812E-06-3.22669E-05-5.45212E-05-2.04868E-06 1.28757E-04 2.28770E-04



 n o d a l   p r i n t   o u t   f o r   t i m e  s t e p    8401                              ( at time 4.1995797E+00 )

 nodal point  x-disp     y-disp      z-disp      x-vel       y-vel       z-vel      x-accl      y-accl      z-accl      x-coor      y-coor      z-coor
    22626 -1.84673E-02-3.19599E-02-1.31704E+01-6.86403E-03-1.49452E-03-3.16007E+00 1.61453E-02-2.32417E-02 6.54525E-03 4.79457E+01-2.20618E+01-5.83190E+00



 n o d a l   p r i n t   o u t   f o r   t i m e  s t e p    8401                              ( at time 4.1995797E+00 )

 nodal point  x-rot      y-rot       z-rot       x-rot vel   y-rot vel   z-rot vel   x-rot acc   y-rot acc   z-rot acc
    22626  6.34362E-07-5.13302E-05-8.68970E-05-2.95526E-06-1.34148E-05-2.06570E-05-7.17212E-06 1.88540E-04 3.38676E-04



 n o d a l   p r i n t   o u t   f o r   t i m e  s t e p    8601                              ( at time 4.2995697E+00 )

 nodal point  x-disp     y-disp      z-disp      x-vel       y-vel       z-vel      x-accl      y-accl      z-accl      x-coor      y-coor      z-coor
    22626 -1.90928E-02-3.22301E-02-1.34864E+01-5.49790E-03-3.62724E-03-3.15995E+00 1.36626E-02-2.13294E-02 1.20890E-03 4.79451E+01-2.20620E+01-6.14786E+00



 n o d a l   p r i n t   o u t   f o r   t i m e  s t e p    8601                              ( at time 4.2995697E+00 )

 nodal point  x-rot      y-rot       z-rot       x-rot vel   y-rot vel   z-rot vel   x-rot acc   y-rot acc   z-rot acc
    22626  3.43101E-07-5.17156E-05-8.75287E-05-2.70689E-06 3.38285E-06 7.19179E-06 2.48390E-06 1.67993E-04 2.78516E-04



 n o d a l   p r i n t   o u t   f o r   t i m e  s t e p    8801                              ( at time 4.3995597E+00 )

 nodal point  x-disp     y-disp      z-disp      x-vel       y-vel       z-vel      x-accl      y-accl      z-accl      x-coor      y-coor      z-coor
    22626 -1.95537E-02-3.26288E-02-1.38024E+01-3.72791E-03-4.39148E-03-3.16061E+00 1.77018E-02-7.64308E-03-6.59056E-03 4.79446E+01-2.20624E+01-6.46385E+00



 n o d a l   p r i n t   o u t   f o r   t i m e  s t e p    8801                              ( at time 4.3995597E+00 )

 nodal point  x-rot      y-rot       z-rot       x-rot vel   y-rot vel   z-rot vel   x-rot acc   y-rot acc   z-rot acc
    22626  1.45332E-07-5.03854E-05-8.49490E-05-1.67313E-06 2.31709E-05 4.29076E-05 1.03387E-05 1.97901E-04 3.57194E-04



 n o d a l   p r i n t   o u t   f o r   t i m e  s t e p    9001                              ( at time 4.4995497E+00 )

 nodal point  x-disp     y-disp      z-disp      x-vel       y-vel       z-vel      x-accl      y-accl      z-accl      x-coor      y-coor      z-coor
    22626 -1.98411E-02-3.31658E-02-1.41184E+01-1.91095E-03-6.67583E-03-3.16024E+00 1.81713E-02-2.28458E-02 3.64816E-03 4.79443E+01-2.20630E+01-6.77987E+00



 n o d a l   p r i n t   o u t   f o r   t i m e  s t e p    9001                              ( at time 4.4995497E+00 )

 nodal point  x-rot      y-rot       z-rot       x-rot vel   y-rot vel   z-rot vel   x-rot acc   y-rot acc   z-rot acc
    22626  1.69112E-08-4.67807E-05-7.85214E-05 1.16190E-07 4.53221E-05 7.97571E-05 1.78949E-05 2.21533E-04 3.68530E-04



 n o d a l   p r i n t   o u t   f o r   t i m e  s t e p    9201                              ( at time 4.5995397E+00 )

 nodal point  x-disp     y-disp      z-disp      x-vel       y-vel       z-vel      x-accl      y-accl      z-accl      x-coor      y-coor      z-coor
    22626 -1.99387E-02-3.39856E-02-1.44343E+01 5.08968E-07-9.51398E-03-3.15961E+00 1.91165E-02-2.83844E-02 6.35688E-03 4.79442E+01-2.20638E+01-7.09583E+00



 n o d a l   p r i n t   o u t   f o r   t i m e  s t e p    9201                              ( at time 4.5995397E+00 )

 nodal point  x-rot      y-rot       z-rot       x-rot vel   y-rot vel   z-rot vel   x-rot acc   y-rot acc   z-rot acc
    22626 -8.94806E-08-4.15055E-05-6.91413E-05-7.09042E-07 6.05033E-05 1.06288E-04-8.25316E-06 1.51828E-04 2.65334E-04



 n o d a l   p r i n t   o u t   f o r   t i m e  s t e p    9401                              ( at time 4.6995297E+00 )

 nodal point  x-disp     y-disp      z-disp      x-vel       y-vel       z-vel      x-accl      y-accl      z-accl      x-coor      y-coor      z-coor
    22626 -1.98259E-02-3.50084E-02-1.47502E+01 2.13837E-03-1.09185E-02-3.15940E+00 2.13808E-02-1.40470E-02 2.09591E-03 4.79444E+01-2.20648E+01-7.41175E+00



 n o d a l   p r i n t   o u t   f o r   t i m e  s t e p    9401                              ( at time 4.6995297E+00 )

 nodal point  x-rot      y-rot       z-rot       x-rot vel   y-rot vel   z-rot vel   x-rot acc   y-rot acc   z-rot acc
    22626 -2.90172E-07-3.42818E-05-5.63497E-05-4.09094E-06 8.58774E-05 1.49464E-04-3.38224E-05 2.53767E-04 4.31800E-04



 n o d a l   p r i n t   o u t   f o r   t i m e  s t e p    9601                              ( at time 4.7995197E+00 )

 nodal point  x-disp     y-disp      z-disp      x-vel       y-vel       z-vel      x-accl      y-accl      z-accl      x-coor      y-coor      z-coor
    22626 -1.95154E-02-3.61672E-02-1.50662E+01 3.96514E-03-1.20923E-02-3.15975E+00 1.82696E-02-1.17386E-02-3.52418E-03 4.79447E+01-2.20660E+01-7.72767E+00



 n o d a l   p r i n t   o u t   f o r   t i m e  s t e p    9601                              ( at time 4.7995197E+00 )

 nodal point  x-rot      y-rot       z-rot       x-rot vel   y-rot vel   z-rot vel   x-rot acc   y-rot acc   z-rot acc
    22626 -8.09406E-07-2.45210E-05-3.92962E-05-9.55986E-06 1.09412E-04 1.91695E-04-5.46948E-05 2.35366E-04 4.22354E-04



 n o d a l   p r i n t   o u t   f o r   t i m e  s t e p    9801                              ( at time 4.8995097E+00 )

 nodal point  x-disp     y-disp      z-disp      x-vel       y-vel       z-vel      x-accl      y-accl      z-accl      x-coor      y-coor      z-coor
    22626 -1.90247E-02-3.74213E-02-1.53821E+01 5.93106E-03-1.32248E-02-3.15961E+00 1.96611E-02-1.13265E-02 1.37820E-03 4.79452E+01-2.20672E+01-8.04362E+00



 n o d a l   p r i n t   o u t   f o r   t i m e  s t e p    9801                              ( at time 4.8995097E+00 )

 nodal point  x-rot      y-rot       z-rot       x-rot vel   y-rot vel   z-rot vel   x-rot acc   y-rot acc   z-rot acc
    22626 -1.92215E-06-1.26612E-05-1.83848E-05-1.59157E-05 1.27684E-04 2.26223E-04-6.35645E-05 1.82742E-04 3.45315E-04



 n o d a l   p r i n t   o u t   f o r   t i m e  s t e p   10001                              ( at time 4.9994997E+00 )

 nodal point  x-disp     y-disp      z-disp      x-vel       y-vel       z-vel      x-accl      y-accl      z-accl      x-coor      y-coor      z-coor
    22626 -1.83033E-02-3.88531E-02-1.56980E+01 8.35789E-03-1.52121E-02-3.15743E+00 2.42707E-02-1.98747E-02 2.18365E-02 4.79459E+01-2.20686E+01-8.35946E+00



 n o d a l   p r i n t   o u t   f o r   t i m e  s t e p   10001                              ( at time 4.9994997E+00 )

 nodal point  x-rot      y-rot       z-rot       x-rot vel   y-rot vel   z-rot vel   x-rot acc   y-rot acc   z-rot acc
    22626 -3.70225E-06 1.66891E-06 5.81432E-06-1.61124E-05 1.61775E-04 2.57267E-04-1.96719E-06 3.40947E-04 3.10478E-04



 n o d a l   p r i n t   o u t   f o r   t i m e  s t e p   10202                              ( at time 5.0999896E+00 )

 nodal point  x-disp     y-disp      z-disp      x-vel       y-vel       z-vel      x-accl      y-accl      z-accl      x-coor      y-coor      z-coor
    22626 -1.73610E-02-4.04162E-02-1.60150E+01 1.03057E-02-1.55134E-02-3.15287E+00 1.93836E-02-2.99827E-03 4.53161E-02 4.79468E+01-2.20702E+01-8.67654E+00



 n o d a l   p r i n t   o u t   f o r   t i m e  s t e p   10202                              ( at time 5.0999896E+00 )

 nodal point  x-rot      y-rot       z-rot       x-rot vel   y-rot vel   z-rot vel   x-rot acc   y-rot acc   z-rot acc
    22626 -4.51605E-06 2.13016E-05 3.30390E-05 3.88411E-06 2.29764E-04 2.84636E-04 1.98990E-04 6.76577E-04 2.72352E-04



 n o d a l   p r i n t   o u t   f o r   t i m e  s t e p   10402                              ( at time 5.1999796E+00 )

 nodal point  x-disp     y-disp      z-disp      x-vel       y-vel       z-vel      x-accl      y-accl      z-accl      x-coor      y-coor      z-coor
    22626 -1.62281E-02-4.19507E-02-1.63299E+01 1.21094E-02-1.44575E-02-3.14374E+00 1.80388E-02 1.05600E-02 9.13708E-02 4.79480E+01-2.20717E+01-8.99139E+00



 n o d a l   p r i n t   o u t   f o r   t i m e  s t e p   10402                              ( at time 5.1999796E+00 )

 nodal point  x-rot      y-rot       z-rot       x-rot vel   y-rot vel   z-rot vel   x-rot acc   y-rot acc   z-rot acc
    22626 -3.09359E-06 4.98639E-05 6.25396E-05 2.98620E-05 3.43579E-04 2.97102E-04 2.59804E-04 1.13826E-03 1.24667E-04



 n o d a l   p r i n t   o u t   f o r   t i m e  s t e p   10602                              ( at time 5.2999696E+00 )

 nodal point  x-disp     y-disp      z-disp      x-vel       y-vel       z-vel      x-accl      y-accl      z-accl      x-coor      y-coor      z-coor
    22626 -1.48875E-02-4.32896E-02-1.66436E+01 1.42443E-02-1.19580E-02-3.12964E+00 2.13508E-02 2.49970E-02 1.40960E-01 4.79493E+01-2.20731E+01-9.30512E+00



 n o d a l   p r i n t   o u t   f o r   t i m e  s t e p   10602                              ( at time 5.2999696E+00 )

 nodal point  x-rot      y-rot       z-rot       x-rot vel   y-rot vel   z-rot vel   x-rot acc   y-rot acc   z-rot acc
    22626  2.88013E-06 9.08261E-05 9.21355E-05 9.74362E-05 4.89592E-04 2.86871E-04 6.75811E-04 1.46027E-03-1.02315E-04



 n o d a l   p r i n t   o u t   f o r   t i m e  s t e p   10802                              ( at time 5.3999596E+00 )

 nodal point  x-disp     y-disp      z-disp      x-vel       y-vel       z-vel      x-accl      y-accl      z-accl      x-coor      y-coor      z-coor
    22626 -1.33547E-02-4.42637E-02-1.69556E+01 1.62760E-02-7.36815E-03-3.10974E+00 2.03190E-02 4.59035E-02 1.99092E-01 4.79508E+01-2.20741E+01-9.61705E+00



 n o d a l   p r i n t   o u t   f o r   t i m e  s t e p   10802                              ( at time 5.3999596E+00 )

 nodal point  x-rot      y-rot       z-rot       x-rot vel   y-rot vel   z-rot vel   x-rot acc   y-rot acc   z-rot acc
    22626  1.83099E-05 1.48939E-04 1.19338E-04 2.15877E-04 6.80372E-04 2.53628E-04 1.18452E-03 1.90800E-03-3.32460E-04



 n o d a l   p r i n t   o u t   f o r   t i m e  s t e p   11002                              ( at time 5.4999496E+00 )

 nodal point  x-disp     y-disp      z-disp      x-vel       y-vel       z-vel      x-accl      y-accl      z-accl      x-coor      y-coor      z-coor
    22626 -1.15638E-02-4.48237E-02-1.72653E+01 1.92220E-02-3.69398E-03-3.08477E+00 2.94632E-02 3.67454E-02 2.49719E-01 4.79526E+01-2.20746E+01-9.92678E+00



 n o d a l   p r i n t   o u t   f o r   t i m e  s t e p   11002                              ( at time 5.4999496E+00 )

 nodal point  x-rot      y-rot       z-rot       x-rot vel   y-rot vel   z-rot vel   x-rot acc   y-rot acc   z-rot acc
    22626  4.36987E-05 2.29411E-04 1.43745E-04 3.02334E-04 9.23878E-04 2.27761E-04 8.64661E-04 2.43530E-03-2.58697E-04



 n o d a l   p r i n t   o u t   f o r   t i m e  s t e p   11202                              ( at time 5.5999396E+00 )

 nodal point  x-disp     y-disp      z-disp      x-vel       y-vel       z-vel      x-accl      y-accl      z-accl      x-coor      y-coor      z-coor
    22626 -9.43928E-03-4.48916E-02-1.75724E+01 2.32367E-02 2.28615E-03-3.05720E+00 4.01503E-02 5.98074E-02 2.75635E-01 4.79547E+01-2.20747E+01-1.02339E+01



 n o d a l   p r i n t   o u t   f o r   t i m e  s t e p   11202                              ( at time 5.5999396E+00 )

 nodal point  x-rot      y-rot       z-rot       x-rot vel   y-rot vel   z-rot vel   x-rot acc   y-rot acc   z-rot acc
    22626  8.19656E-05 3.32630E-04 1.63831E-04 4.47534E-04 1.16222E-03 1.83687E-04 1.45215E-03 2.38362E-03-4.40785E-04



 n o d a l   p r i n t   o u t   f o r   t i m e  s t e p   11402                              ( at time 5.6999296E+00 )

 nodal point  x-disp     y-disp      z-disp      x-vel       y-vel       z-vel      x-accl      y-accl      z-accl      x-coor      y-coor      z-coor
    22626 -7.00524E-03-4.42876E-02-1.78765E+01 2.56406E-02 9.31134E-03-3.02619E+00 2.40414E-02 7.02587E-02 3.10179E-01 4.79572E+01-2.20741E+01-1.05380E+01



 n o d a l   p r i n t   o u t   f o r   t i m e  s t e p   11402                              ( at time 5.6999296E+00 )

 nodal point  x-rot      y-rot       z-rot       x-rot vel   y-rot vel   z-rot vel   x-rot acc   y-rot acc   z-rot acc
    22626  1.33742E-04 4.63541E-04 1.78921E-04 5.75958E-04 1.45958E-03 1.26018E-04 1.28437E-03 2.97398E-03-5.76743E-04



 n o d a l   p r i n t   o u t   f o r   t i m e  s t e p   11602                              ( at time 5.7999195E+00 )

 nodal point  x-disp     y-disp      z-disp      x-vel       y-vel       z-vel      x-accl      y-accl      z-accl      x-coor      y-coor      z-coor
    22626 -4.33113E-03-4.29617E-02-1.81775E+01 2.82024E-02 1.63444E-02-2.99343E+00 2.56211E-02 7.03373E-02 3.27670E-01 4.79599E+01-2.20728E+01-1.08390E+01



 n o d a l   p r i n t   o u t   f o r   t i m e  s t e p   11602                              ( at time 5.7999195E+00 )

 nodal point  x-rot      y-rot       z-rot       x-rot vel   y-rot vel   z-rot vel   x-rot acc   y-rot acc   z-rot acc
    22626  2.01323E-04 6.24838E-04 1.87439E-04 7.64459E-04 1.76940E-03 4.70547E-05 1.88519E-03 3.09847E-03-7.89717E-04



 n o d a l   p r i n t   o u t   f o r   t i m e  s t e p   11802                              ( at time 5.8999095E+00 )

 nodal point  x-disp     y-disp      z-disp      x-vel       y-vel       z-vel      x-accl      y-accl      z-accl      x-coor      y-coor      z-coor
    22626 -1.26971E-03-4.10126E-02-1.84749E+01 3.29400E-02 2.27886E-02-2.95515E+00 4.73805E-02 6.44491E-02 3.82753E-01 4.79629E+01-2.20708E+01-1.11364E+01



 n o d a l   p r i n t   o u t   f o r   t i m e  s t e p   11802                              ( at time 5.8999095E+00 )

 nodal point  x-rot      y-rot       z-rot       x-rot vel   y-rot vel   z-rot vel   x-rot acc   y-rot acc   z-rot acc
    22626  2.85196E-04 8.17179E-04 1.88545E-04 9.17176E-04 2.08941E-03-3.21363E-05 1.52733E-03 3.20046E-03-7.91990E-04



 n o d a l   p r i n t   o u t   f o r   t i m e  s t e p   12002                              ( at time 5.9998995E+00 )

 nodal point  x-disp     y-disp      z-disp      x-vel       y-vel       z-vel      x-accl      y-accl      z-accl      x-coor      y-coor      z-coor
    22626  2.18437E-03-3.84129E-02-1.87685E+01 3.60000E-02 2.97099E-02-2.91706E+00 3.06035E-02 6.92201E-02 3.80962E-01 4.79664E+01-2.20682E+01-1.14300E+01



 n o d a l   p r i n t   o u t   f o r   t i m e  s t e p   12002                              ( at time 5.9998995E+00 )

 nodal point  x-rot      y-rot       z-rot       x-rot vel   y-rot vel   z-rot vel   x-rot acc   y-rot acc   z-rot acc
    22626  3.86139E-04 1.04331E-03 1.81014E-04 1.10963E-03 2.42923E-03-1.24011E-04 1.92470E-03 3.39849E-03-9.18839E-04



 n o d a l   p r i n t   o u t   f o r   t i m e  s t e p   12202                              ( at time 6.0998895E+00 )

 nodal point  x-disp     y-disp      z-disp      x-vel       y-vel       z-vel      x-accl      y-accl      z-accl      x-coor      y-coor      z-coor
    22626  5.93926E-03-3.50400E-02-1.90582E+01 3.97581E-02 3.77400E-02-2.87696E+00 3.75845E-02 8.03086E-02 4.01028E-01 4.79701E+01-2.20648E+01-1.17197E+01



 n o d a l   p r i n t   o u t   f o r   t i m e  s t e p   12202                              ( at time 6.0998895E+00 )

 nodal point  x-rot      y-rot       z-rot       x-rot vel   y-rot vel   z-rot vel   x-rot acc   y-rot acc   z-rot acc
    22626  5.05064E-04 1.30306E-03 1.63992E-04 1.27513E-03 2.77212E-03-2.19493E-04 1.65518E-03 3.42925E-03-9.54916E-04



 n o d a l   p r i n t   o u t   f o r   t i m e  s t e p   12402                              ( at time 6.1998795E+00 )

 nodal point  x-disp     y-disp      z-disp      x-vel       y-vel       z-vel      x-accl      y-accl      z-accl      x-coor      y-coor      z-coor
    22626  1.01710E-02-3.09271E-02-1.93437E+01 4.51291E-02 4.46507E-02-2.83474E+00 5.37155E-02 6.91134E-02 4.22303E-01 4.79743E+01-2.20607E+01-1.20052E+01



 n o d a l   p r i n t   o u t   f o r   t i m e  s t e p   12402                              ( at time 6.1998795E+00 )

 nodal point  x-rot      y-rot       z-rot       x-rot vel   y-rot vel   z-rot vel   x-rot acc   y-rot acc   z-rot acc
    22626  6.42300E-04 1.59717E-03 1.36623E-04 1.47333E-03 3.09717E-03-3.29345E-04 1.98226E-03 3.25083E-03-1.09863E-03



 n o d a l   p r i n t   o u t   f o r   t i m e  s t e p   12602                              ( at time 6.2998695E+00 )

 nodal point  x-disp     y-disp      z-disp      x-vel       y-vel       z-vel      x-accl      y-accl      z-accl      x-coor      y-coor      z-coor
    22626  1.50090E-02-2.61065E-02-1.96250E+01 5.12052E-02 5.14208E-02-2.79034E+00 6.07664E-02 6.77081E-02 4.44061E-01 4.79792E+01-2.20559E+01-1.22865E+01



 n o d a l   p r i n t   o u t   f o r   t i m e  s t e p   12602                              ( at time 6.2998695E+00 )

 nodal point  x-rot      y-rot       z-rot       x-rot vel   y-rot vel   z-rot vel   x-rot acc   y-rot acc   z-rot acc
    22626  7.98604E-04 1.92422E-03 9.79878E-05 1.65654E-03 3.44771E-03-4.40249E-04 1.83226E-03 3.50574E-03-1.10915E-03



 n o d a l   p r i n t   o u t   f o r   t i m e  s t e p   12802                              ( at time 6.3998595E+00 )

 nodal point  x-disp     y-disp      z-disp      x-vel       y-vel       z-vel      x-accl      y-accl      z-accl      x-coor      y-coor      z-coor
    22626  2.04301E-02-2.06039E-02-1.99018E+01 5.78329E-02 5.89033E-02-2.74556E+00 6.62847E-02 7.48331E-02 4.47810E-01 4.79846E+01-2.20504E+01-1.25633E+01



 n o d a l   p r i n t   o u t   f o r   t i m e  s t e p   12802                              ( at time 6.3998595E+00 )

 nodal point  x-rot      y-rot       z-rot       x-rot vel   y-rot vel   z-rot vel   x-rot acc   y-rot acc   z-rot acc
    22626  9.73957E-04 2.28581E-03 4.79892E-05 1.85581E-03 3.78026E-03-5.50279E-04 1.99291E-03 3.32585E-03-1.10040E-03



 n o d a l   p r i n t   o u t   f o r   t i m e  s t e p   13002                              ( at time 6.4998495E+00 )

 nodal point  x-disp     y-disp      z-disp      x-vel       y-vel       z-vel      x-accl      y-accl      z-accl      x-coor      y-coor      z-coor
    22626  2.65912E-02-1.43198E-02-2.01739E+01 6.56353E-02 6.62024E-02-2.69930E+00 7.80313E-02 7.29977E-02 4.62653E-01 4.79908E+01-2.20441E+01-1.28354E+01



 n o d a l   p r i n t   o u t   f o r   t i m e  s t e p   13002                              ( at time 6.4998495E+00 )

 nodal point  x-rot      y-rot       z-rot       x-rot vel   y-rot vel   z-rot vel   x-rot acc   y-rot acc   z-rot acc
    22626  1.17012E-03 2.67995E-03-1.24670E-05 2.06519E-03 4.09691E-03-6.57739E-04 2.09398E-03 3.16684E-03-1.07471E-03



 n o d a l   p r i n t   o u t   f o r   t i m e  s t e p   13202                              ( at time 6.5998395E+00 )

 nodal point  x-disp     y-disp      z-disp      x-vel       y-vel       z-vel      x-accl      y-accl      z-accl      x-coor      y-coor      z-coor
    22626  3.35839E-02-7.23430E-03-2.04414E+01 7.37448E-02 7.56002E-02-2.65000E+00 8.11031E-02 9.39878E-02 4.93054E-01 4.79978E+01-2.20370E+01-1.31029E+01



 n o d a l   p r i n t   o u t   f o r   t i m e  s t e p   13202                              ( at time 6.5998395E+00 )

 nodal point  x-rot      y-rot       z-rot       x-rot vel   y-rot vel   z-rot vel   x-rot acc   y-rot acc   z-rot acc
    22626  1.38739E-03 3.10582E-03-8.51261E-05 2.27292E-03 4.41864E-03-7.93011E-04 2.07751E-03 3.21761E-03-1.35285E-03



 n o d a l   p r i n t   o u t   f o r   t i m e  s t e p   13402                              ( at time 6.6998295E+00 )

 nodal point  x-disp     y-disp      z-disp      x-vel       y-vel       z-vel      x-accl      y-accl      z-accl      x-coor      y-coor      z-coor
    22626  4.13759E-02 6.68781E-04-2.07040E+01 8.16628E-02 8.25054E-02-2.60202E+00 7.91883E-02 6.90585E-02 4.79859E-01 4.80056E+01-2.20291E+01-1.33655E+01



 n o d a l   p r i n t   o u t   f o r   t i m e  s t e p   13402                              ( at time 6.6998295E+00 )

 nodal point  x-rot      y-rot       z-rot       x-rot vel   y-rot vel   z-rot vel   x-rot acc   y-rot acc   z-rot acc
    22626  1.62659E-03 3.56277E-03-1.69507E-04 2.49496E-03 4.72319E-03-8.93780E-04 2.22066E-03 3.04573E-03-1.00780E-03



 n o d a l   p r i n t   o u t   f o r   t i m e  s t e p   13602                              ( at time 6.7998195E+00 )

 nodal point  x-disp     y-disp      z-disp      x-vel       y-vel       z-vel      x-accl      y-accl      z-accl      x-coor      y-coor      z-coor
    22626  5.00890E-02 9.30593E-03-2.09616E+01 9.24906E-02 9.04251E-02-2.55012E+00 1.08289E-01 7.92056E-02 5.19018E-01 4.80143E+01-2.20205E+01-1.36231E+01



 n o d a l   p r i n t   o u t   f o r   t i m e  s t e p   13602                              ( at time 6.7998195E+00 )

 nodal point  x-rot      y-rot       z-rot       x-rot vel   y-rot vel   z-rot vel   x-rot acc   y-rot acc   z-rot acc
    22626  1.88661E-03 4.04911E-03-2.65330E-04 2.70916E-03 5.00887E-03-1.02192E-03 2.14222E-03 2.85718E-03-1.28150E-03



 n o d a l   p r i n t   o u t   f o r   t i m e  s t e p   13802                              ( at time 6.8998095E+00 )

 nodal point  x-disp     y-disp      z-disp      x-vel       y-vel       z-vel      x-accl      y-accl      z-accl      x-coor      y-coor      z-coor
    22626  5.98254E-02 1.87996E-02-2.12140E+01 1.01442E-01 9.91039E-02-2.49894E+00 8.95251E-02 8.67965E-02 5.11879E-01 4.80240E+01-2.20110E+01-1.38755E+01



 n o d a l   p r i n t   o u t   f o r   t i m e  s t e p   13802                              ( at time 6.8998095E+00 )

 nodal point  x-rot      y-rot       z-rot       x-rot vel   y-rot vel   z-rot vel   x-rot acc   y-rot acc   z-rot acc
    22626  2.16938E-03 4.56426E-03-3.74114E-04 2.94595E-03 5.29889E-03-1.14728E-03 2.36814E-03 2.90045E-03-1.25373E-03



 n o d a l   p r i n t   o u t   f o r   t i m e  s t e p   14002                              ( at time 6.9997995E+00 )

 nodal point  x-disp     y-disp      z-disp      x-vel       y-vel       z-vel      x-accl      y-accl      z-accl      x-coor      y-coor      z-coor
    22626  7.03896E-02 2.91349E-02-2.14612E+01 1.09966E-01 1.07341E-01-2.44560E+00 8.52435E-02 8.23752E-02 5.33482E-01 4.80346E+01-2.20007E+01-1.41227E+01



 n o d a l   p r i n t   o u t   f o r   t i m e  s t e p   14002                              ( at time 6.9997995E+00 )

 nodal point  x-rot      y-rot       z-rot       x-rot vel   y-rot vel   z-rot vel   x-rot acc   y-rot acc   z-rot acc
    22626  2.47373E-03 5.10912E-03-4.94507E-04 3.14302E-03 5.59337E-03-1.26810E-03 1.97084E-03 2.94513E-03-1.20834E-03



 n o d a l   p r i n t   o u t   f o r   t i m e  s t e p   14202                              ( at time 7.0997895E+00 )

 nodal point  x-disp     y-disp      z-disp      x-vel       y-vel       z-vel      x-accl      y-accl      z-accl      x-coor      y-coor      z-coor
    22626  8.18783E-02 4.02806E-02-2.17030E+01 1.19456E-01 1.15471E-01-2.39147E+00 9.49166E-02 8.13133E-02 5.41312E-01 4.80461E+01-2.19895E+01-1.43645E+01



 n o d a l   p r i n t   o u t   f o r   t i m e  s t e p   14202                              ( at time 7.0997895E+00 )

 nodal point  x-rot      y-rot       z-rot       x-rot vel   y-rot vel   z-rot vel   x-rot acc   y-rot acc   z-rot acc
    22626  2.80000E-03 5.68191E-03-6.27577E-04 3.38577E-03 5.86634E-03-1.38513E-03 2.42777E-03 2.72991E-03-1.17045E-03



 n o d a l   p r i n t   o u t   f o r   t i m e  s t e p   14402                              ( at time 7.1997794E+00 )

 nodal point  x-disp     y-disp      z-disp      x-vel       y-vel       z-vel      x-accl      y-accl      z-accl      x-coor      y-coor      z-coor
    22626  9.43066E-02 5.21785E-02-2.19393E+01 1.29057E-01 1.22926E-01-2.33536E+00 9.60114E-02 7.45599E-02 5.61194E-01 4.80585E+01-2.19776E+01-1.46008E+01



 n o d a l   p r i n t   o u t   f o r   t i m e  s t e p   14402                              ( at time 7.1997794E+00 )

 nodal point  x-rot      y-rot       z-rot       x-rot vel   y-rot vel   z-rot vel   x-rot acc   y-rot acc   z-rot acc
    22626  3.14970E-03 6.28317E-03-7.71047E-04 3.60703E-03 6.15909E-03-1.48476E-03 2.21284E-03 2.92785E-03-9.96413E-04



 n o d a l   p r i n t   o u t   f o r   t i m e  s t e p   14602                              ( at time 7.2997694E+00 )

 nodal point  x-disp     y-disp      z-disp      x-vel       y-vel       z-vel      x-accl      y-accl      z-accl      x-coor      y-coor      z-coor
    22626  1.07603E-01 6.48075E-02-2.21701E+01 1.37127E-01 1.28981E-01-2.28064E+00 8.07130E-02 6.05480E-02 5.47214E-01 4.80718E+01-2.19650E+01-1.48316E+01



 n o d a l   p r i n t   o u t   f o r   t i m e  s t e p   14602                              ( at time 7.2997694E+00 )

 nodal point  x-rot      y-rot       z-rot       x-rot vel   y-rot vel   z-rot vel   x-rot acc   y-rot acc   z-rot acc
    22626  3.52124E-03 6.91326E-03-9.25606E-04 3.82400E-03 6.43172E-03-1.59004E-03 2.16987E-03 2.72650E-03-1.05289E-03



 n o d a l   p r i n t   o u t   f o r   t i m e  s t e p   14802                              ( at time 7.3997594E+00 )

 nodal point  x-disp     y-disp      z-disp      x-vel       y-vel       z-vel      x-accl      y-accl      z-accl      x-coor      y-coor      z-coor
    22626  1.21681E-01 7.81167E-02-2.23953E+01 1.45143E-01 1.37133E-01-2.22240E+00 8.01655E-02 8.15353E-02 5.82492E-01 4.80859E+01-2.19517E+01-1.50568E+01



 n o d a l   p r i n t   o u t   f o r   t i m e  s t e p   14802                              ( at time 7.3997594E+00 )

 nodal point  x-rot      y-rot       z-rot       x-rot vel   y-rot vel   z-rot vel   x-rot acc   y-rot acc   z-rot acc
    22626  3.91485E-03 7.57067E-03-1.08995E-03 4.04483E-03 6.71589E-03-1.69372E-03 2.20856E-03 2.84200E-03-1.03687E-03



 n o d a l   p r i n t   o u t   f o r   t i m e  s t e p   15002                              ( at time 7.4997494E+00 )

 nodal point  x-disp     y-disp      z-disp      x-vel       y-vel       z-vel      x-accl      y-accl      z-accl      x-coor      y-coor      z-coor
    22626  1.36566E-01 9.20617E-02-2.26145E+01 1.52388E-01 1.41363E-01-2.16273E+00 7.24551E-02 4.23042E-02 5.96724E-01 4.81007E+01-2.19377E+01-1.52760E+01



 n o d a l   p r i n t   o u t   f o r   t i m e  s t e p   15002                              ( at time 7.4997494E+00 )

 nodal point  x-rot      y-rot       z-rot       x-rot vel   y-rot vel   z-rot vel   x-rot acc   y-rot acc   z-rot acc
    22626  4.33212E-03 8.25712E-03-1.26405E-03 4.28693E-03 7.01342E-03-1.77860E-03 2.42118E-03 2.97558E-03-8.48912E-04



 n o d a l   p r i n t   o u t   f o r   t i m e  s t e p   15202                              ( at time 7.5997394E+00 )

 nodal point  x-disp     y-disp      z-disp      x-vel       y-vel       z-vel      x-accl      y-accl      z-accl      x-coor      y-coor      z-coor
    22626  1.52139E-01 1.06391E-01-2.28276E+01 1.57924E-01 1.44921E-01-2.09934E+00 5.53726E-02 3.55798E-02 6.33962E-01 4.81163E+01-2.19234E+01-1.54891E+01



 n o d a l   p r i n t   o u t   f o r   t i m e  s t e p   15202                              ( at time 7.5997394E+00 )

 nodal point  x-rot      y-rot       z-rot       x-rot vel   y-rot vel   z-rot vel   x-rot acc   y-rot acc   z-rot acc
    22626  4.77228E-03 8.97347E-03-1.44696E-03 4.52568E-03 7.31489E-03-1.86503E-03 2.38777E-03 3.01506E-03-8.64423E-04



 n o d a l   p r i n t   o u t   f o r   t i m e  s t e p   15402                              ( at time 7.6997294E+00 )

 nodal point  x-disp     y-disp      z-disp      x-vel       y-vel       z-vel      x-accl      y-accl      z-accl      x-coor      y-coor      z-coor
    22626  1.68282E-01 1.21081E-01-2.30343E+01 1.64911E-01 1.48755E-01-2.03537E+00 6.98722E-02 3.83444E-02 6.39777E-01 4.81325E+01-2.19087E+01-1.56958E+01



 n o d a l   p r i n t   o u t   f o r   t i m e  s t e p   15402                              ( at time 7.6997294E+00 )

 nodal point  x-rot      y-rot       z-rot       x-rot vel   y-rot vel   z-rot vel   x-rot acc   y-rot acc   z-rot acc
    22626  5.23931E-03 9.71837E-03-1.63805E-03 4.81488E-03 7.58710E-03-1.94746E-03 2.89233E-03 2.72237E-03-8.24299E-04



 n o d a l   p r i n t   o u t   f o r   t i m e  s t e p   15602                              ( at time 7.7997194E+00 )

 nodal point  x-disp     y-disp      z-disp      x-vel       y-vel       z-vel      x-accl      y-accl      z-accl      x-coor      y-coor      z-coor
    22626  1.85179E-01 1.36021E-01-2.32345E+01 1.71965E-01 1.49282E-01-1.96860E+00 7.05494E-02 5.27286E-03 6.67713E-01 4.81494E+01-2.18938E+01-1.58960E+01



 n o d a l   p r i n t   o u t   f o r   t i m e  s t e p   15602                              ( at time 7.7997194E+00 )

 nodal point  x-rot      y-rot       z-rot       x-rot vel   y-rot vel   z-rot vel   x-rot acc   y-rot acc   z-rot acc
    22626  5.73227E-03 1.04908E-02-1.83740E-03 5.04653E-03 7.86454E-03-2.02555E-03 2.31672E-03 2.77463E-03-7.80974E-04



 n o d a l   p r i n t   o u t   f o r   t i m e  s t e p   15802                              ( at time 7.8997094E+00 )

 nodal point  x-disp     y-disp      z-disp      x-vel       y-vel       z-vel      x-accl      y-accl      z-accl      x-coor      y-coor      z-coor
    22626  2.02771E-01 1.51103E-01-2.34279E+01 1.79388E-01 1.51685E-01-1.90030E+00 7.42409E-02 2.40285E-02 6.83088E-01 4.81670E+01-2.18787E+01-1.60894E+01



 n o d a l   p r i n t   o u t   f o r   t i m e  s t e p   15802                              ( at time 7.8997094E+00 )

 nodal point  x-rot      y-rot       z-rot       x-rot vel   y-rot vel   z-rot vel   x-rot acc   y-rot acc   z-rot acc
    22626  6.25225E-03 1.12887E-02-2.04350E-03 5.33815E-03 8.11586E-03-2.08723E-03 2.91644E-03 2.51347E-03-6.16866E-04



 n o d a l   p r i n t   o u t   f o r   t i m e  s t e p   16002                              ( at time 7.9996994E+00 )

 nodal point  x-disp     y-disp      z-disp      x-vel       y-vel       z-vel      x-accl      y-accl      z-accl      x-coor      y-coor      z-coor
    22626  2.21026E-01 1.66313E-01-2.36144E+01 1.85920E-01 1.51741E-01-1.83013E+00 6.53255E-02 5.61530E-04 7.01829E-01 4.81852E+01-2.18635E+01-1.62759E+01



 n o d a l   p r i n t   o u t   f o r   t i m e  s t e p   16002                              ( at time 7.9996994E+00 )

 nodal point  x-rot      y-rot       z-rot       x-rot vel   y-rot vel   z-rot vel   x-rot acc   y-rot acc   z-rot acc
    22626  6.80106E-03 1.21113E-02-2.25651E-03 5.63863E-03 8.33932E-03-2.16536E-03 3.00512E-03 2.23489E-03-7.81385E-04



 n o d a l   p r i n t   o u t   f o r   t i m e  s t e p   16202                              ( at time 8.0996894E+00 )

 nodal point  x-disp     y-disp      z-disp      x-vel       y-vel       z-vel      x-accl      y-accl      z-accl      x-coor      y-coor      z-coor
    22626  2.40025E-01 1.81469E-01-2.37938E+01 1.94111E-01 1.50928E-01-1.75779E+00 8.19125E-02-8.13254E-03 7.23429E-01 4.82042E+01-2.18483E+01-1.64553E+01



 n o d a l   p r i n t   o u t   f o r   t i m e  s t e p   16202                              ( at time 8.0996894E+00 )

 nodal point  x-rot      y-rot       z-rot       x-rot vel   y-rot vel   z-rot vel   x-rot acc   y-rot acc   z-rot acc
    22626  7.38118E-03 1.29575E-02-2.47707E-03 5.95611E-03 8.57885E-03-2.24045E-03 3.17512E-03 2.39547E-03-7.51020E-04



 n o d a l   p r i n t   o u t   f o r   t i m e  s t e p   16402                              ( at time 8.1996794E+00 )

 nodal point  x-disp     y-disp      z-disp      x-vel       y-vel       z-vel      x-accl      y-accl      z-accl      x-coor      y-coor      z-coor
    22626  2.59672E-01 1.96476E-01-2.39660E+01 1.99710E-01 1.49488E-01-1.68699E+00 5.60006E-02-1.43988E-02 7.08036E-01 4.82239E+01-2.18333E+01-1.66275E+01



 n o d a l   p r i n t   o u t   f o r   t i m e  s t e p   16402                              ( at time 8.1996794E+00 )

 nodal point  x-rot      y-rot       z-rot       x-rot vel   y-rot vel   z-rot vel   x-rot acc   y-rot acc   z-rot acc
    22626  7.99197E-03 1.38262E-02-2.70383E-03 6.26309E-03 8.79707E-03-2.29247E-03 3.07007E-03 2.18245E-03-5.20229E-04



 n o d a l   p r i n t   o u t   f o r   t i m e  s t e p   16602                              ( at time 8.2996694E+00 )

 nodal point  x-disp     y-disp      z-disp      x-vel       y-vel       z-vel      x-accl      y-accl      z-accl      x-coor      y-coor      z-coor
    22626  2.79946E-01 2.11380E-01-2.41311E+01 2.06350E-01 1.48602E-01-1.61418E+00 6.64078E-02-8.86008E-03 7.28188E-01 4.82441E+01-2.18184E+01-1.67926E+01



 n o d a l   p r i n t   o u t   f o r   t i m e  s t e p   16602                              ( at time 8.2996694E+00 )

 nodal point  x-rot      y-rot       z-rot       x-rot vel   y-rot vel   z-rot vel   x-rot acc   y-rot acc   z-rot acc
    22626  8.63577E-03 1.47144E-02-2.93611E-03 6.62379E-03 8.97470E-03-2.36338E-03 3.60740E-03 1.77651E-03-7.09211E-04



 n o d a l   p r i n t   o u t   f o r   t i m e  s t e p   16802                              ( at time 8.3996594E+00 )

 nodal point  x-disp     y-disp      z-disp      x-vel       y-vel       z-vel      x-accl      y-accl      z-accl      x-coor      y-coor      z-coor
    22626  3.00884E-01 2.25970E-01-2.42888E+01 2.12469E-01 1.42630E-01-1.54192E+00 6.11941E-02-5.97312E-02 7.22731E-01 4.82651E+01-2.18038E+01-1.69503E+01



 n o d a l   p r i n t   o u t   f o r   t i m e  s t e p   16802                              ( at time 8.3996594E+00 )

 nodal point  x-rot      y-rot       z-rot       x-rot vel   y-rot vel   z-rot vel   x-rot acc   y-rot acc   z-rot acc
    22626  9.31431E-03 1.56217E-02-3.17582E-03 6.95958E-03 9.15322E-03-2.43399E-03 3.35829E-03 1.78530E-03-7.06168E-04



 n o d a l   p r i n t   o u t   f o r   t i m e  s t e p   17002                              ( at time 8.4996494E+00 )

 nodal point  x-disp     y-disp      z-disp      x-vel       y-vel       z-vel      x-accl      y-accl      z-accl      x-coor      y-coor      z-coor
    22626  3.22477E-01 2.40025E-01-2.44391E+01 2.19096E-01 1.38573E-01-1.46579E+00 6.62702E-02-4.05694E-02 7.61334E-01 4.82867E+01-2.17898E+01-1.71006E+01



 n o d a l   p r i n t   o u t   f o r   t i m e  s t e p   17002                              ( at time 8.4996494E+00 )

 nodal point  x-rot      y-rot       z-rot       x-rot vel   y-rot vel   z-rot vel   x-rot acc   y-rot acc   z-rot acc
    22626  1.00269E-02 1.65460E-02-3.42120E-03 7.30648E-03 9.31783E-03-2.48127E-03 3.46931E-03 1.64632E-03-4.72796E-04



 n o d a l   p r i n t   o u t   f o r   t i m e  s t e p   17202                              ( at time 8.5996394E+00 )

 nodal point  x-disp     y-disp      z-disp      x-vel       y-vel       z-vel      x-accl      y-accl      z-accl      x-coor      y-coor      z-coor
    22626  3.44661E-01 2.53576E-01-2.45819E+01 2.25699E-01 1.32673E-01-1.38995E+00 6.60422E-02-5.90085E-02 7.58521E-01 4.83088E+01-2.17762E+01-1.72434E+01



 n o d a l   p r i n t   o u t   f o r   t i m e  s t e p   17202                              ( at time 8.5996394E+00 )

 nodal point  x-rot      y-rot       z-rot       x-rot vel   y-rot vel   z-rot vel   x-rot acc   y-rot acc   z-rot acc
    22626  1.07770E-02 1.74856E-02-3.67174E-03 7.68952E-03 9.46483E-03-2.53936E-03 3.83081E-03 1.47015E-03-5.81004E-04



 n o d a l   p r i n t   o u t   f o r   t i m e  s t e p   17402                              ( at time 8.6996293E+00 )

 nodal point  x-disp     y-disp      z-disp      x-vel       y-vel       z-vel      x-accl      y-accl      z-accl      x-coor      y-coor      z-coor
    22626  3.67633E-01 2.66620E-01-2.47170E+01 2.33219E-01 1.28261E-01-1.31143E+00 7.52044E-02-4.41207E-02 7.85250E-01 4.83318E+01-2.17632E+01-1.73785E+01



 n o d a l   p r i n t   o u t   f o r   t i m e  s t e p   17402                              ( at time 8.6996293E+00 )

 nodal point  x-rot      y-rot       z-rot       x-rot vel   y-rot vel   z-rot vel   x-rot acc   y-rot acc   z-rot acc
    22626  1.15660E-02 1.84365E-02-3.92883E-03 8.09255E-03 9.55374E-03-2.60335E-03 4.03066E-03 8.89168E-04-6.39963E-04



 n o d a l   p r i n t   o u t   f o r   t i m e  s t e p   17602                              ( at time 8.7996193E+00 )

 nodal point  x-disp     y-disp      z-disp      x-vel       y-vel       z-vel      x-accl      y-accl      z-accl      x-coor      y-coor      z-coor
    22626  3.91272E-01 2.79026E-01-2.48443E+01 2.40253E-01 1.20039E-01-1.23580E+00 7.03503E-02-8.22307E-02 7.56400E-01 4.83555E+01-2.17508E+01-1.75058E+01



 n o d a l   p r i n t   o u t   f o r   t i m e  s t e p   17602                              ( at time 8.7996193E+00 )

 nodal point  x-rot      y-rot       z-rot       x-rot vel   y-rot vel   z-rot vel   x-rot acc   y-rot acc   z-rot acc
    22626  1.23952E-02 1.93965E-02-4.19127E-03 8.48655E-03 9.65119E-03-2.67090E-03 3.94041E-03 9.74579E-04-6.75575E-04



 n o d a l   p r i n t   o u t   f o r   t i m e  s t e p   17802                              ( at time 8.8996093E+00 )

 nodal point  x-disp     y-disp      z-disp      x-vel       y-vel       z-vel      x-accl      y-accl      z-accl      x-coor      y-coor      z-coor
    22626  4.15536E-01 2.90637E-01-2.49640E+01 2.45469E-01 1.12636E-01-1.16014E+00 5.21611E-02-7.40416E-02 7.56620E-01 4.83797E+01-2.17392E+01-1.76255E+01



 n o d a l   p r i n t   o u t   f o r   t i m e  s t e p   17802                              ( at time 8.8996093E+00 )

 nodal point  x-rot      y-rot       z-rot       x-rot vel   y-rot vel   z-rot vel   x-rot acc   y-rot acc   z-rot acc
    22626  1.32641E-02 2.03694E-02-4.46017E-03 8.87936E-03 9.79575E-03-2.72032E-03 3.92850E-03 1.44579E-03-4.94182E-04



 n o d a l   p r i n t   o u t   f o r   t i m e  s t e p   18002                              ( at time 8.9995993E+00 )

 nodal point  x-disp     y-disp      z-disp      x-vel       y-vel       z-vel      x-accl      y-accl      z-accl      x-coor      y-coor      z-coor
    22626  4.40525E-01 3.01692E-01-2.50763E+01 2.55111E-01 1.09172E-01-1.08639E+00 9.64286E-02-3.46349E-02 7.37605E-01 4.84047E+01-2.17281E+01-1.77378E+01



 n o d a l   p r i n t   o u t   f o r   t i m e  s t e p   18002                              ( at time 8.9995993E+00 )

 nodal point  x-rot      y-rot       z-rot       x-rot vel   y-rot vel   z-rot vel   x-rot acc   y-rot acc   z-rot acc
    22626  1.41740E-02 2.13516E-02-4.73383E-03 9.30301E-03 9.84663E-03-2.77188E-03 4.23688E-03 5.08796E-04-5.15663E-04



 n o d a l   p r i n t   o u t   f o r   t i m e  s t e p   18202                              ( at time 9.0995893E+00 )

 nodal point  x-disp     y-disp      z-disp      x-vel       y-vel       z-vel      x-accl      y-accl      z-accl      x-coor      y-coor      z-coor
    22626  4.66385E-01 3.12221E-01-2.51812E+01 2.62350E-01 1.02231E-01-1.01343E+00 7.24052E-02-6.94179E-02 7.29647E-01 4.84306E+01-2.17176E+01-1.78427E+01



 n o d a l   p r i n t   o u t   f o r   t i m e  s t e p   18202                              ( at time 9.0995893E+00 )

 nodal point  x-rot      y-rot       z-rot       x-rot vel   y-rot vel   z-rot vel   x-rot acc   y-rot acc   z-rot acc
    22626  1.51249E-02 2.23416E-02-5.01231E-03 9.70749E-03 9.94611E-03-2.79659E-03 4.04525E-03 9.94883E-04-2.47123E-04



 n o d a l   p r i n t   o u t   f o r   t i m e  s t e p   18402                              ( at time 9.1995793E+00 )

 nodal point  x-disp     y-disp      z-disp      x-vel       y-vel       z-vel      x-accl      y-accl      z-accl      x-coor      y-coor      z-coor
    22626  4.93059E-01 3.22293E-01-2.52790E+01 2.70174E-01 9.92536E-02-9.41246E-01 7.82477E-02-2.97804E-02 7.21924E-01 4.84572E+01-2.17075E+01-1.79405E+01



 n o d a l   p r i n t   o u t   f o r   t i m e  s t e p   18402                              ( at time 9.1995793E+00 )

 nodal point  x-rot      y-rot       z-rot       x-rot vel   y-rot vel   z-rot vel   x-rot acc   y-rot acc   z-rot acc
    22626  1.61172E-02 2.33408E-02-5.29521E-03 1.01462E-02 1.00447E-02-2.86922E-03 4.38726E-03 9.85802E-04-7.26384E-04



 n o d a l   p r i n t   o u t   f o r   t i m e  s t e p   18602                              ( at time 9.2995693E+00 )

 nodal point  x-disp     y-disp      z-disp      x-vel       y-vel       z-vel      x-accl      y-accl      z-accl      x-coor      y-coor      z-coor
    22626  5.20422E-01 3.31909E-01-2.53696E+01 2.78150E-01 9.42141E-02-8.71435E-01 7.97683E-02-5.03993E-02 6.98182E-01 4.84846E+01-2.16979E+01-1.80311E+01



 n o d a l   p r i n t   o u t   f o r   t i m e  s t e p   18602                              ( at time 9.2995693E+00 )

 nodal point  x-rot      y-rot       z-rot       x-rot vel   y-rot vel   z-rot vel   x-rot acc   y-rot acc   z-rot acc
    22626  1.71543E-02 2.43492E-02-5.58327E-03 1.05727E-02 1.01170E-02-2.90970E-03 4.26608E-03 7.23785E-04-4.04850E-04



 n o d a l   p r i n t   o u t   f o r   t i m e  s t e p   18802                              ( at time 9.3995593E+00 )

 nodal point  x-disp     y-disp      z-disp      x-vel       y-vel       z-vel      x-accl      y-accl      z-accl      x-coor      y-coor      z-coor
    22626  5.48721E-01 3.41204E-01-2.54532E+01 2.86686E-01 9.05542E-02-8.02885E-01 8.53598E-02-3.66027E-02 6.85568E-01 4.85129E+01-2.16886E+01-1.81147E+01



 n o d a l   p r i n t   o u t   f o r   t i m e  s t e p   18802                              ( at time 9.3995593E+00 )

 nodal point  x-rot      y-rot       z-rot       x-rot vel   y-rot vel   z-rot vel   x-rot acc   y-rot acc   z-rot acc
    22626  1.82305E-02 2.53647E-02-5.87661E-03 1.09624E-02 1.01989E-02-2.93760E-03 3.89686E-03 8.18836E-04-2.79045E-04



 n o d a l   p r i n t   o u t   f o r   t i m e  s t e p   19002                              ( at time 9.4995493E+00 )

 nodal point  x-disp     y-disp      z-disp      x-vel       y-vel       z-vel      x-accl      y-accl      z-accl      x-coor      y-coor      z-coor
    22626  5.77687E-01 3.50139E-01-2.55301E+01 2.93221E-01 8.95132E-02-7.34404E-01 6.53622E-02-1.04111E-02 6.84879E-01 4.85419E+01-2.16797E+01-1.81916E+01



 n o d a l   p r i n t   o u t   f o r   t i m e  s t e p   19002                              ( at time 9.4995493E+00 )

 nodal point  x-rot      y-rot       z-rot       x-rot vel   y-rot vel   z-rot vel   x-rot acc   y-rot acc   z-rot acc
    22626  1.93467E-02 2.63873E-02-6.17292E-03 1.13859E-02 1.02605E-02-2.97792E-03 4.23518E-03 6.15815E-04-4.03227E-04



 n o d a l   p r i n t   o u t   f o r   t i m e  s t e p   19202                              ( at time 9.5995393E+00 )

 nodal point  x-disp     y-disp      z-disp      x-vel       y-vel       z-vel      x-accl      y-accl      z-accl      x-coor      y-coor      z-coor
    22626  6.07460E-01 3.59147E-01-2.56001E+01 3.02192E-01 8.89475E-02-6.66044E-01 8.97180E-02-5.65819E-03 6.83665E-01 4.85716E+01-2.16706E+01-1.82616E+01



 n o d a l   p r i n t   o u t   f o r   t i m e  s t e p   19202                              ( at time 9.5995393E+00 )

 nodal point  x-rot      y-rot       z-rot       x-rot vel   y-rot vel   z-rot vel   x-rot acc   y-rot acc   z-rot acc
    22626  2.05073E-02 2.74168E-02-6.47572E-03 1.18383E-02 1.03281E-02-3.01575E-03 4.52443E-03 6.76370E-04-3.78368E-04



 n o d a l   p r i n t   o u t   f o r   t i m e  s t e p   19402                              ( at time 9.6995293E+00 )

 nodal point  x-disp     y-disp      z-disp      x-vel       y-vel       z-vel      x-accl      y-accl      z-accl      x-coor      y-coor      z-coor
    22626  6.38191E-01 3.67752E-01-2.56633E+01 3.11707E-01 8.61251E-02-5.98155E-01 9.51634E-02-2.82268E-02 6.78965E-01 4.86024E+01-2.16620E+01-1.83248E+01



 n o d a l   p r i n t   o u t   f o r   t i m e  s t e p   19402                              ( at time 9.6995293E+00 )

 nodal point  x-rot      y-rot       z-rot       x-rot vel   y-rot vel   z-rot vel   x-rot acc   y-rot acc   z-rot acc
    22626  2.17055E-02 2.84521E-02-6.78218E-03 1.21821E-02 1.03850E-02-3.07812E-03 3.43877E-03 5.68602E-04-6.23763E-04



 n o d a l   p r i n t   o u t   f o r   t i m e  s t e p   19602                              ( at time 9.7995193E+00 )

 nodal point  x-disp     y-disp      z-disp      x-vel       y-vel       z-vel      x-accl      y-accl      z-accl      x-coor      y-coor      z-coor
    22626  6.69628E-01 3.76316E-01-2.57200E+01 3.15770E-01 8.91692E-02-5.34207E-01 4.06285E-02 3.04449E-02 6.39538E-01 4.86338E+01-2.16535E+01-1.83815E+01



 n o d a l   p r i n t   o u t   f o r   t i m e  s t e p   19602                              ( at time 9.7995193E+00 )

 nodal point  x-rot      y-rot       z-rot       x-rot vel   y-rot vel   z-rot vel   x-rot acc   y-rot acc   z-rot acc
    22626  2.29446E-02 2.94930E-02-7.09273E-03 1.26538E-02 1.04538E-02-3.12937E-03 4.71727E-03 6.88168E-04-5.12517E-04



 n o d a l   p r i n t   o u t   f o r   t i m e  s t e p   19802                              ( at time 9.8995093E+00 )

 nodal point  x-disp     y-disp      z-disp      x-vel       y-vel       z-vel      x-accl      y-accl      z-accl      x-coor      y-coor      z-coor
    22626  7.01739E-01 3.85266E-01-2.57702E+01 3.26273E-01 8.74899E-02-4.71325E-01 1.05038E-01-1.67952E-02 6.28882E-01 4.86659E+01-2.16445E+01-1.84317E+01



 n o d a l   p r i n t   o u t   f o r   t i m e  s t e p   19802                              ( at time 9.8995093E+00 )

 nodal point  x-rot      y-rot       z-rot       x-rot vel   y-rot vel   z-rot vel   x-rot acc   y-rot acc   z-rot acc
    22626  2.42269E-02 3.05399E-02-7.40867E-03 1.29885E-02 1.04835E-02-3.16102E-03 3.34710E-03 2.96992E-04-3.16579E-04



 n o d a l   p r i n t   o u t   f o r   t i m e  s t e p   20003                              ( at time 9.9999992E+00 )

 nodal point  x-disp     y-disp      z-disp      x-vel       y-vel       z-vel      x-accl      y-accl      z-accl      x-coor      y-coor      z-coor
[...]
    22626  2.51688E-01 1.52755E-01-6.82013E-02 1.62214E-02 7.29268E-03-5.20956E-03-8.95306E-04-6.24858E-04 1.01563E-03



 n o d a l   p r i n t   o u t   f o r   t i m e  s t e p   45205                              ( at time 2.2599738E+01 )

 nodal point  x-disp     y-disp      z-disp      x-vel       y-vel       z-vel      x-accl      y-accl      z-accl      x-coor      y-coor      z-coor
    22626  4.60863E+00 8.63550E-01-2.01623E+01 2.74090E-01-7.76794E-02 4.34908E-01 3.53220E-03-4.91292E-02-3.30636E-02 5.25728E+01-2.11662E+01-1.28238E+01



 n o d a l   p r i n t   o u t   f o r   t i m e  s t e p   45205                              ( at time 2.2599738E+01 )

 nodal point  x-rot      y-rot       z-rot       x-rot vel   y-rot vel   z-rot vel   x-rot acc   y-rot acc   z-rot acc
    22626  2.53302E-01 1.53481E-01-6.87180E-02 1.60976E-02 7.22166E-03-5.11824E-03-1.23883E-03-7.10250E-04 9.13343E-04



 n o d a l   p r i n t   o u t   f o r   t i m e  s t e p   45405                              ( at time 2.2699728E+01 )

 nodal point  x-disp     y-disp      z-disp      x-vel       y-vel       z-vel      x-accl      y-accl      z-accl      x-coor      y-coor      z-coor
    22626  4.63626E+00 8.55886E-01-2.01190E+01 2.77028E-01-7.62377E-02 4.32657E-01 2.93821E-02 1.44194E-02-2.25104E-02 5.26004E+01-2.11739E+01-1.27805E+01



 n o d a l   p r i n t   o u t   f o r   t i m e  s t e p   45405                              ( at time 2.2699728E+01 )

 nodal point  x-rot      y-rot       z-rot       x-rot vel   y-rot vel   z-rot vel   x-rot acc   y-rot acc   z-rot acc
    22626  2.54909E-01 1.54202E-01-6.92267E-02 1.60212E-02 7.19218E-03-5.05763E-03-7.63657E-04-2.94866E-04 6.06130E-04



 n o d a l   p r i n t   o u t   f o r   t i m e  s t e p   45605                              ( at time 2.2799718E+01 )

 nodal point  x-disp     y-disp      z-disp      x-vel       y-vel       z-vel      x-accl      y-accl      z-accl      x-coor      y-coor      z-coor
    22626  4.66393E+00 8.47968E-01-2.00760E+01 2.78126E-01-8.05701E-02 4.28250E-01 1.09814E-02-4.33287E-02-4.40757E-02 5.26281E+01-2.11818E+01-1.27375E+01



 n o d a l   p r i n t   o u t   f o r   t i m e  s t e p   45605                              ( at time 2.2799718E+01 )

 nodal point  x-rot      y-rot       z-rot       x-rot vel   y-rot vel   z-rot vel   x-rot acc   y-rot acc   z-rot acc
    22626  2.56504E-01 1.54917E-01-6.97261E-02 1.59083E-02 7.13152E-03-4.95105E-03-1.12957E-03-6.06663E-04 1.06587E-03



 n o d a l   p r i n t   o u t   f o r   t i m e  s t e p   45805                              ( at time 2.2899708E+01 )

 nodal point  x-disp     y-disp      z-disp      x-vel       y-vel       z-vel      x-accl      y-accl      z-accl      x-coor      y-coor      z-coor
    22626  4.69199E+00 8.39975E-01-2.00330E+01 2.80345E-01-8.08260E-02 4.28121E-01 2.21897E-02-2.55881E-03-1.29029E-03 5.26562E+01-2.11898E+01-1.26945E+01



 n o d a l   p r i n t   o u t   f o r   t i m e  s t e p   45805                              ( at time 2.2899708E+01 )

 nodal point  x-rot      y-rot       z-rot       x-rot vel   y-rot vel   z-rot vel   x-rot acc   y-rot acc   z-rot acc
    22626  2.58094E-01 1.55630E-01-7.02188E-02 1.58659E-02 7.11702E-03-4.87313E-03-4.23407E-04-1.45070E-04 7.79273E-04



 n o d a l   p r i n t   o u t   f o r   t i m e  s t e p   46005                              ( at time 2.2999698E+01 )

 nodal point  x-disp     y-disp      z-disp      x-vel       y-vel       z-vel      x-accl      y-accl      z-accl      x-coor      y-coor      z-coor
    22626  4.72003E+00 8.31838E-01-1.99904E+01 2.82282E-01-8.12165E-02 4.25653E-01 1.93751E-02-3.90595E-03-2.46801E-02 5.26842E+01-2.11980E+01-1.26519E+01



 n o d a l   p r i n t   o u t   f o r   t i m e  s t e p   46005                              ( at time 2.2999698E+01 )

 nodal point  x-rot      y-rot       z-rot       x-rot vel   y-rot vel   z-rot vel   x-rot acc   y-rot acc   z-rot acc
    22626  2.59673E-01 1.56338E-01-7.07026E-02 1.57718E-02 7.07420E-03-4.80899E-03-9.41001E-04-4.28145E-04 6.41479E-04



 n o d a l   p r i n t   o u t   f o r   t i m e  s t e p   46205                              ( at time 2.3099688E+01 )

 nodal point  x-disp     y-disp      z-disp      x-vel       y-vel       z-vel      x-accl      y-accl      z-accl      x-coor      y-coor      z-coor
    22626  4.74836E+00 8.23553E-01-1.99479E+01 2.83615E-01-8.50426E-02 4.24975E-01 1.33353E-02-3.82648E-02-6.78555E-03 5.27125E+01-2.12062E+01-1.26094E+01



 n o d a l   p r i n t   o u t   f o r   t i m e  s t e p   46205                              ( at time 2.3099688E+01 )

 nodal point  x-rot      y-rot       z-rot       x-rot vel   y-rot vel   z-rot vel   x-rot acc   y-rot acc   z-rot acc
    22626  2.61251E-01 1.57045E-01-7.11809E-02 1.57673E-02 7.04892E-03-4.75287E-03-4.57516E-05-2.52877E-04 5.61282E-04



 n o d a l   p r i n t   o u t   f o r   t i m e  s t e p   46405                              ( at time 2.3199678E+01 )

 nodal point  x-disp     y-disp      z-disp      x-vel       y-vel       z-vel      x-accl      y-accl      z-accl      x-coor      y-coor      z-coor
    22626  4.77674E+00 8.15127E-01-1.99058E+01 2.85403E-01-8.25224E-02 4.18202E-01 1.78780E-02 2.52043E-02-6.77394E-02 5.27409E+01-2.12147E+01-1.25673E+01



 n o d a l   p r i n t   o u t   f o r   t i m e  s t e p   46405                              ( at time 2.3199678E+01 )

 nodal point  x-rot      y-rot       z-rot       x-rot vel   y-rot vel   z-rot vel   x-rot acc   y-rot acc   z-rot acc
    22626  2.62825E-01 1.57748E-01-7.16522E-02 1.57109E-02 6.99518E-03-4.69476E-03-5.63986E-04-5.37427E-04 5.81189E-04



 n o d a l   p r i n t   o u t   f o r   t i m e  s t e p   46605                              ( at time 2.3299668E+01 )

 nodal point  x-disp     y-disp      z-disp      x-vel       y-vel       z-vel      x-accl      y-accl      z-accl      x-coor      y-coor      z-coor
    22626  4.80536E+00 8.06664E-01-1.98638E+01 2.86534E-01-8.57117E-02 4.20631E-01 1.13088E-02-3.18966E-02 2.43002E-02 5.27695E+01-2.12231E+01-1.25253E+01



 n o d a l   p r i n t   o u t   f o r   t i m e  s t e p   46605                              ( at time 2.3299668E+01 )

 nodal point  x-rot      y-rot       z-rot       x-rot vel   y-rot vel   z-rot vel   x-rot acc   y-rot acc   z-rot acc
    22626  2.64397E-01 1.58449E-01-7.21168E-02 1.57170E-02 7.00317E-03-4.64243E-03 6.12878E-05 7.98837E-05 5.23275E-04



 n o d a l   p r i n t   o u t   f o r   t i m e  s t e p   46805                              ( at time 2.3399658E+01 )

 nodal point  x-disp     y-disp      z-disp      x-vel       y-vel       z-vel      x-accl      y-accl      z-accl      x-coor      y-coor      z-coor
    22626  4.83411E+00 7.98112E-01-1.98221E+01 2.88276E-01-8.40052E-02 4.13768E-01 1.74255E-02 1.70668E-02-6.86363E-02 5.27983E+01-2.12317E+01-1.24836E+01



 n o d a l   p r i n t   o u t   f o r   t i m e  s t e p   46805                              ( at time 2.3399658E+01 )

 nodal point  x-rot      y-rot       z-rot       x-rot vel   y-rot vel   z-rot vel   x-rot acc   y-rot acc   z-rot acc
    22626  2.65969E-01 1.59147E-01-7.25771E-02 1.57028E-02 6.95420E-03-4.55448E-03-1.41984E-04-4.89739E-04 8.79626E-04



 n o d a l   p r i n t   o u t   f o r   t i m e  s t e p   47005                              ( at time 2.3499648E+01 )

 nodal point  x-disp     y-disp      z-disp      x-vel       y-vel       z-vel      x-accl      y-accl      z-accl      x-coor      y-coor      z-coor
    22626  4.86294E+00 7.89595E-01-1.97806E+01 2.89383E-01-8.74872E-02 4.16061E-01 1.10681E-02-3.48238E-02 2.29290E-02 5.28271E+01-2.12402E+01-1.24421E+01



 n o d a l   p r i n t   o u t   f o r   t i m e  s t e p   47005                              ( at time 2.3499648E+01 )

 nodal point  x-rot      y-rot       z-rot       x-rot vel   y-rot vel   z-rot vel   x-rot acc   y-rot acc   z-rot acc
    22626  2.67536E-01 1.59843E-01-7.30307E-02 1.56739E-02 6.96935E-03-4.51119E-03-2.89407E-04 1.51498E-04 4.32979E-04



 n o d a l   p r i n t   o u t   f o r   t i m e  s t e p   47205                              ( at time 2.3599638E+01 )

 nodal point  x-disp     y-disp      z-disp      x-vel       y-vel       z-vel      x-accl      y-accl      z-accl      x-coor      y-coor      z-coor
    22626  4.89205E+00 7.81017E-01-1.97392E+01 2.91183E-01-8.42775E-02 4.13532E-01 1.80002E-02 3.21015E-02-2.52913E-02 5.28562E+01-2.12488E+01-1.24007E+01



 n o d a l   p r i n t   o u t   f o r   t i m e  s t e p   47205                              ( at time 2.3599638E+01 )

 nodal point  x-rot      y-rot       z-rot       x-rot vel   y-rot vel   z-rot vel   x-rot acc   y-rot acc   z-rot acc
    22626  2.69104E-01 1.60538E-01-7.34798E-02 1.56781E-02 6.93681E-03-4.44435E-03 4.26220E-05-3.25389E-04 6.68428E-04



 n o d a l   p r i n t   o u t   f o r   t i m e  s t e p   47405                              ( at time 2.3699628E+01 )

 nodal point  x-disp     y-disp      z-disp      x-vel       y-vel       z-vel      x-accl      y-accl      z-accl      x-coor      y-coor      z-coor
    22626  4.92108E+00 7.72606E-01-1.96980E+01 2.91330E-01-8.50242E-02 4.10422E-01 1.47297E-03-7.46795E-03-3.11037E-02 5.28853E+01-2.12572E+01-1.23595E+01



 n o d a l   p r i n t   o u t   f o r   t i m e  s t e p   47405                              ( at time 2.3699628E+01 )

 nodal point  x-rot      y-rot       z-rot       x-rot vel   y-rot vel   z-rot vel   x-rot acc   y-rot acc   z-rot acc
    22626  2.70667E-01 1.61229E-01-7.39219E-02 1.55911E-02 6.89629E-03-4.40326E-03-8.70354E-04-4.05256E-04 4.10905E-04



 n o d a l   p r i n t   o u t   f o r   t i m e  s t e p   47605                              ( at time 2.3799618E+01 )

 nodal point  x-disp     y-disp      z-disp      x-vel       y-vel       z-vel      x-accl      y-accl      z-accl      x-coor      y-coor      z-coor
    22626  4.95042E+00 7.64217E-01-1.96568E+01 2.93853E-01-8.24420E-02 4.11779E-01 2.52302E-02 2.58242E-02 1.35684E-02 5.29146E+01-2.12656E+01-1.23183E+01



 n o d a l   p r i n t   o u t   f o r   t i m e  s t e p   47605                              ( at time 2.3799618E+01 )

 nodal point  x-rot      y-rot       z-rot       x-rot vel   y-rot vel   z-rot vel   x-rot acc   y-rot acc   z-rot acc
    22626  2.72230E-01 1.61920E-01-7.43607E-02 1.56436E-02 6.91665E-03-4.35868E-03 5.25222E-04 2.03591E-04 4.45901E-04



 n o d a l   p r i n t   o u t   f o r   t i m e  s t e p   47805                              ( at time 2.3899608E+01 )

 nodal point  x-disp     y-disp      z-disp      x-vel       y-vel       z-vel      x-accl      y-accl      z-accl      x-coor      y-coor      z-coor
    22626  4.97977E+00 7.56039E-01-1.96159E+01 2.94698E-01-8.12790E-02 4.07550E-01 8.45450E-03 1.16311E-02-4.22958E-02 5.29440E+01-2.12738E+01-1.22774E+01



 n o d a l   p r i n t   o u t   f o r   t i m e  s t e p   47805                              ( at time 2.3899608E+01 )

 nodal point  x-rot      y-rot       z-rot       x-rot vel   y-rot vel   z-rot vel   x-rot acc   y-rot acc   z-rot acc
    22626  2.73789E-01 1.62608E-01-7.47929E-02 1.55534E-02 6.85899E-03-4.28414E-03-9.02385E-04-5.76630E-04 7.45476E-04



 n o d a l   p r i n t   o u t   f o r   t i m e  s t e p   48005                              ( at time 2.3999598E+01 )

 nodal point  x-disp     y-disp      z-disp      x-vel       y-vel       z-vel      x-accl      y-accl      z-accl      x-coor      y-coor      z-coor
    22626  5.00933E+00 7.47967E-01-1.95752E+01 2.95463E-01-8.02000E-02 4.07103E-01 7.64753E-03 1.07913E-02-4.46816E-03 5.29735E+01-2.12818E+01-1.22367E+01



 n o d a l   p r i n t   o u t   f o r   t i m e  s t e p   48005                              ( at time 2.3999598E+01 )

 nodal point  x-rot      y-rot       z-rot       x-rot vel   y-rot vel   z-rot vel   x-rot acc   y-rot acc   z-rot acc
    22626  2.75347E-01 1.63293E-01-7.52199E-02 1.55999E-02 6.84491E-03-4.25556E-03 4.65564E-04-1.40804E-04 2.85766E-04



 n o d a l   p r i n t   o u t   f o r   t i m e  s t e p   48205                              ( at time 2.4099588E+01 )

 nodal point  x-disp     y-disp      z-disp      x-vel       y-vel       z-vel      x-accl      y-accl      z-accl      x-coor      y-coor      z-coor
    22626  5.03894E+00 7.40094E-01-1.95345E+01 2.96928E-01-7.70305E-02 4.05130E-01 1.46584E-02 3.16980E-02-1.97339E-02 5.30031E+01-2.12897E+01-1.21960E+01



 n o d a l   p r i n t   o u t   f o r   t i m e  s t e p   48205                              ( at time 2.4099588E+01 )

 nodal point  x-rot      y-rot       z-rot       x-rot vel   y-rot vel   z-rot vel   x-rot acc   y-rot acc   z-rot acc
    22626  2.76905E-01 1.63977E-01-7.56427E-02 1.55642E-02 6.82743E-03-4.20655E-03-3.57363E-04-1.74858E-04 4.90233E-04



 n o d a l   p r i n t   o u t   f o r   t i m e  s t e p   48405                              ( at time 2.4199578E+01 )

 nodal point  x-disp     y-disp      z-disp      x-vel       y-vel       z-vel      x-accl      y-accl      z-accl      x-coor      y-coor      z-coor
    22626  5.06865E+00 7.32328E-01-1.94942E+01 2.95956E-01-7.81723E-02 4.01822E-01-9.72498E-03-1.14194E-02-3.30759E-02 5.30328E+01-2.12975E+01-1.21557E+01



 n o d a l   p r i n t   o u t   f o r   t i m e  s t e p   48405                              ( at time 2.4199578E+01 )

 nodal point  x-rot      y-rot       z-rot       x-rot vel   y-rot vel   z-rot vel   x-rot acc   y-rot acc   z-rot acc
    22626  2.78462E-01 1.64657E-01-7.60624E-02 1.55889E-02 6.77990E-03-4.17331E-03 2.47359E-04-4.75306E-04 3.32365E-04



 n o d a l   p r i n t   o u t   f o r   t i m e  s t e p   48605                              ( at time 2.4299568E+01 )

 nodal point  x-disp     y-disp      z-disp      x-vel       y-vel       z-vel      x-accl      y-accl      z-accl      x-coor      y-coor      z-coor
    22626  5.09839E+00 7.24727E-01-1.94541E+01 2.98145E-01-7.43584E-02 3.99575E-01 2.18954E-02 3.81430E-02-2.24745E-02 5.30626E+01-2.13051E+01-1.21156E+01



 n o d a l   p r i n t   o u t   f o r   t i m e  s t e p   48605                              ( at time 2.4299568E+01 )

 nodal point  x-rot      y-rot       z-rot       x-rot vel   y-rot vel   z-rot vel   x-rot acc   y-rot acc   z-rot acc
    22626  2.80022E-01 1.65336E-01-7.64783E-02 1.56056E-02 6.78583E-03-4.12599E-03 1.66415E-04 5.92795E-05 4.73248E-04



 n o d a l   p r i n t   o u t   f o r   t i m e  s t e p   48805                              ( at time 2.4399558E+01 )

 nodal point  x-disp     y-disp      z-disp      x-vel       y-vel       z-vel      x-accl      y-accl      z-accl      x-coor      y-coor      z-coor
    22626  5.12821E+00 7.17292E-01-1.94143E+01 2.98005E-01-7.39123E-02 3.96768E-01-1.40382E-03 4.46129E-03-2.80746E-02 5.30924E+01-2.13125E+01-1.20758E+01



 n o d a l   p r i n t   o u t   f o r   t i m e  s t e p   48805                              ( at time 2.4399558E+01 )

 nodal point  x-rot      y-rot       z-rot       x-rot vel   y-rot vel   z-rot vel   x-rot acc   y-rot acc   z-rot acc
    22626  2.81584E-01 1.66012E-01-7.68916E-02 1.56322E-02 6.73710E-03-4.14182E-03 2.66606E-04-4.87378E-04-1.58339E-04



 n o d a l   p r i n t   o u t   f o r   t i m e  s t e p   49006                              ( at time 2.4500048E+01 )

 nodal point  x-disp     y-disp      z-disp      x-vel       y-vel       z-vel      x-accl      y-accl      z-accl      x-coor      y-coor      z-coor
    22626  5.15820E+00 7.09936E-01-1.93747E+01 2.99696E-01-7.18916E-02 3.93922E-01 1.68312E-02 2.01086E-02-2.83222E-02 5.31224E+01-2.13199E+01-1.20362E+01



 n o d a l   p r i n t   o u t   f o r   t i m e  s t e p   49006                              ( at time 2.4500048E+01 )

 nodal point  x-rot      y-rot       z-rot       x-rot vel   y-rot vel   z-rot vel   x-rot acc   y-rot acc   z-rot acc
    22626  2.83155E-01 1.66689E-01-7.73048E-02 1.56505E-02 6.75551E-03-4.07921E-03 1.81299E-04 1.83222E-04 6.23139E-04



 n o d a l   p r i n t   o u t   f o r   t i m e  s t e p   49206                              ( at time 2.4600038E+01 )

 nodal point  x-disp     y-disp      z-disp      x-vel       y-vel       z-vel      x-accl      y-accl      z-accl      x-coor      y-coor      z-coor
    22626  5.18818E+00 7.02840E-01-1.93354E+01 2.99491E-01-6.99628E-02 3.91462E-01-2.05029E-03 1.92902E-02-2.46065E-02 5.31524E+01-2.13270E+01-1.19969E+01



 n o d a l   p r i n t   o u t   f o r   t i m e  s t e p   49206                              ( at time 2.4600038E+01 )

 nodal point  x-rot      y-rot       z-rot       x-rot vel   y-rot vel   z-rot vel   x-rot acc   y-rot acc   z-rot acc
    22626  2.84720E-01 1.67362E-01-7.77120E-02 1.56561E-02 6.68621E-03-4.06879E-03 5.69463E-05-6.93019E-04 1.04187E-04



 n o d a l   p r i n t   o u t   f o r   t i m e  s t e p   49406                              ( at time 2.4700028E+01 )

 nodal point  x-disp     y-disp      z-disp      x-vel       y-vel       z-vel      x-accl      y-accl      z-accl      x-coor      y-coor      z-coor
    22626  5.21804E+00 6.95975E-01-1.92964E+01 2.99125E-01-6.82506E-02 3.89787E-01-3.66669E-03 1.71232E-02-1.67466E-02 5.31822E+01-2.13338E+01-1.19579E+01



 n o d a l   p r i n t   o u t   f o r   t i m e  s t e p   49406                              ( at time 2.4700028E+01 )

 nodal point  x-rot      y-rot       z-rot       x-rot vel   y-rot vel   z-rot vel   x-rot acc   y-rot acc   z-rot acc
    22626  2.86285E-01 1.68029E-01-7.81189E-02 1.56498E-02 6.68775E-03-4.04316E-03-6.32624E-05 1.53918E-05 2.56282E-04



 n o d a l   p r i n t   o u t   f o r   t i m e  s t e p   49606                              ( at time 2.4800018E+01 )

 nodal point  x-disp     y-disp      z-disp      x-vel       y-vel       z-vel      x-accl      y-accl      z-accl      x-coor      y-coor      z-coor
    22626  5.24801E+00 6.89301E-01-1.92574E+01 3.00750E-01-6.53274E-02 3.87776E-01 1.62515E-02 2.92347E-02-2.01124E-02 5.32122E+01-2.13405E+01-1.19189E+01



 n o d a l   p r i n t   o u t   f o r   t i m e  s t e p   49606                              ( at time 2.4800018E+01 )

 nodal point  x-rot      y-rot       z-rot       x-rot vel   y-rot vel   z-rot vel   x-rot acc   y-rot acc   z-rot acc
    22626  2.87850E-01 1.68697E-01-7.85218E-02 1.56656E-02 6.64286E-03-4.02354E-03 1.57520E-04-4.48990E-04 1.96290E-04



 n o d a l   p r i n t   o u t   f o r   t i m e  s t e p   49806                              ( at time 2.4900008E+01 )

 nodal point  x-disp     y-disp      z-disp      x-vel       y-vel       z-vel      x-accl      y-accl      z-accl      x-coor      y-coor      z-coor
    22626  5.27799E+00 6.82832E-01-1.92188E+01 2.99758E-01-6.35442E-02 3.84989E-01-9.91722E-03 1.78343E-02-2.78748E-02 5.32422E+01-2.13470E+01-1.18803E+01



 n o d a l   p r i n t   o u t   f o r   t i m e  s t e p   49806                              ( at time 2.4900008E+01 )

 nodal point  x-rot      y-rot       z-rot       x-rot vel   y-rot vel   z-rot vel   x-rot acc   y-rot acc   z-rot acc
    22626  2.89419E-01 1.69360E-01-7.89228E-02 1.56861E-02 6.61408E-03-4.00702E-03 2.05007E-04-2.87834E-04 1.65179E-04



 n o d a l   p r i n t   o u t   f o r   t i m e  s t e p   50006                              ( at time 2.4999998E+01 )

 nodal point  x-disp     y-disp      z-disp      x-vel       y-vel       z-vel      x-accl      y-accl      z-accl      x-coor      y-coor      z-coor
    22626  5.30794E+00 6.76604E-01-1.91804E+01 3.00089E-01-6.08412E-02 3.83474E-01 3.31224E-03 2.70322E-02-1.51451E-02 5.32721E+01-2.13532E+01-1.18419E+01



 n o d a l   p r i n t   o u t   f o r   t i m e  s t e p   50006                              ( at time 2.4999998E+01 )

 nodal point  x-rot      y-rot       z-rot       x-rot vel   y-rot vel   z-rot vel   x-rot acc   y-rot acc   z-rot acc
    22626  2.90986E-01 1.70022E-01-7.93221E-02 1.56753E-02 6.61248E-03-3.99079E-03-1.07280E-04-1.59550E-05 1.62284E-04
