 LSTC 50th% Full_FE H-III Dummy (Beta Version, February 17, 2019)        
                    ls-dyna smp s R16 R16.0_619_d222963 date 03/18/2025

{BEGIN LEGEND}
 Entity #        Title
    15383                                                                                     
{END LEGEND}




 n o d a l   p r i n t   o u t   f o r   t i m e  s t e p       1                              ( at time 0.0000000E+00 )

 nodal point  x-disp     y-disp      z-disp      x-vel       y-vel       z-vel      x-accl      y-accl      z-accl      x-coor      y-coor      z-coor
    15383 -1.65939E-11 2.12363E-09 1.22397E-09-3.31912E-08 4.24769E-06 2.44818E-06 0.00000E+00 0.00000E+00 0.00000E+00 1.24386E+02 5.73330E+02-3.36687E+02



 n o d a l   p r i n t   o u t   f o r   t i m e  s t e p       1                              ( at time 0.0000000E+00 )

 nodal point  x-rot      y-rot       z-rot       x-rot vel   y-rot vel   z-rot vel   x-rot acc   y-rot acc   z-rot acc
    15383  0.00000E+00 0.00000E+00 0.00000E+00 0.00000E+00 0.00000E+00 0.00000E+00 0.00000E+00 0.00000E+00 0.00000E+00



 n o d a l   p r i n t   o u t   f o r   t i m e  s t e p     201                              ( at time 9.9989993E-02 )

 nodal point  x-disp     y-disp      z-disp      x-vel       y-vel       z-vel      x-accl      y-accl      z-accl      x-coor      y-coor      z-coor
    15383  6.65291E-07-2.77610E-07 5.50784E-06 2.43135E-05-5.10072E-05 6.35996E-04 2.43491E-04-5.52604E-04 6.33612E-03 1.24386E+02 5.73330E+02-3.36687E+02



 n o d a l   p r i n t   o u t   f o r   t i m e  s t e p     201                              ( at time 9.9989993E-02 )

 nodal point  x-rot      y-rot       z-rot       x-rot vel   y-rot vel   z-rot vel   x-rot acc   y-rot acc   z-rot acc
    15383  1.00469E-08 6.41231E-08 9.48753E-10 1.30897E-06 6.05220E-06 3.61931E-07 1.30910E-05 6.05280E-05 3.61967E-06



 n o d a l   p r i n t   o u t   f o r   t i m e  s t e p     401                              ( at time 1.9997999E-01 )

 nodal point  x-disp     y-disp      z-disp      x-vel       y-vel       z-vel      x-accl      y-accl      z-accl      x-coor      y-coor      z-coor
    15383 -7.60074E-05-2.27433E-05 6.25073E-04-1.62437E-03-1.29703E-04 1.32170E-02-1.64885E-02-7.87037E-04 1.25823E-01 1.24386E+02 5.73330E+02-3.36687E+02



 n o d a l   p r i n t   o u t   f o r   t i m e  s t e p     401                              ( at time 1.9997999E-01 )

 nodal point  x-rot      y-rot       z-rot       x-rot vel   y-rot vel   z-rot vel   x-rot acc   y-rot acc   z-rot acc
    15383  4.41922E-07 2.85667E-06 1.36259E-07 2.30234E-06 3.92561E-05 1.31328E-06 9.93464E-06 3.32072E-04 9.51448E-06



 n o d a l   p r i n t   o u t   f o r   t i m e  s t e p     601                              ( at time 2.9996998E-01 )

 nodal point  x-disp     y-disp      z-disp      x-vel       y-vel       z-vel      x-accl      y-accl      z-accl      x-coor      y-coor      z-coor
    15383 -1.15759E-04-4.62697E-05 2.32673E-03 9.01858E-04-5.56270E-04 1.84867E-02 2.52648E-02-4.26610E-03 5.27019E-02 1.24385E+02 5.73328E+02-3.36687E+02



 n o d a l   p r i n t   o u t   f o r   t i m e  s t e p     601                              ( at time 2.9996998E-01 )

 nodal point  x-rot      y-rot       z-rot       x-rot vel   y-rot vel   z-rot vel   x-rot acc   y-rot acc   z-rot acc
    15383  6.31770E-07 5.39846E-06 3.90275E-07 8.01956E-06 1.48712E-05 3.12036E-06 5.71780E-05-2.43873E-04 1.80726E-05



 n o d a l   p r i n t   o u t   f o r   t i m e  s t e p     801                              ( at time 3.9995997E-01 )

 nodal point  x-disp     y-disp      z-disp      x-vel       y-vel       z-vel      x-accl      y-accl      z-accl      x-coor      y-coor      z-coor
    15383 -1.07441E-04-5.50146E-05 4.19769E-03-6.36070E-04 1.93428E-04 2.07257E-02-1.53808E-02 7.49773E-03 2.23923E-02 1.24385E+02 5.73327E+02-3.36686E+02



 n o d a l   p r i n t   o u t   f o r   t i m e  s t e p     801                              ( at time 3.9995997E-01 )

 nodal point  x-rot      y-rot       z-rot       x-rot vel   y-rot vel   z-rot vel   x-rot acc   y-rot acc   z-rot acc
    15383  1.53294E-06 7.65683E-06 2.62225E-07 5.84954E-06 4.54058E-05-1.46438E-06-2.17024E-05 3.05376E-04-4.58520E-05



 n o d a l   p r i n t   o u t   f o r   t i m e  s t e p    1001                              ( at time 4.9994997E-01 )

 nodal point  x-disp     y-disp      z-disp      x-vel       y-vel       z-vel      x-accl      y-accl      z-accl      x-coor      y-coor      z-coor
    15383 -1.90998E-04-4.87227E-05 6.64842E-03-2.36873E-04 7.72564E-05 2.85697E-02 3.99236E-03-1.16184E-03 7.84485E-02 1.24385E+02 5.73325E+02-3.36685E+02



 n o d a l   p r i n t   o u t   f o r   t i m e  s t e p    1001                              ( at time 4.9994997E-01 )

 nodal point  x-rot      y-rot       z-rot       x-rot vel   y-rot vel   z-rot vel   x-rot acc   y-rot acc   z-rot acc
    15383  1.40253E-06 1.36236E-05 3.10651E-07-5.33538E-06 8.44357E-05-1.35029E-06-1.11860E-04 3.90338E-04 1.14099E-06



 n o d a l   p r i n t   o u t   f o r   t i m e  s t e p    1201                              ( at time 5.9993996E-01 )

 nodal point  x-disp     y-disp      z-disp      x-vel       y-vel       z-vel      x-accl      y-accl      z-accl      x-coor      y-coor      z-coor
    15383 -3.29035E-04-6.51400E-05 9.61047E-03-1.78029E-03-2.80466E-04 3.07175E-02-1.54357E-02-3.57758E-03 2.14800E-02 1.24385E+02 5.73322E+02-3.36684E+02



 n o d a l   p r i n t   o u t   f o r   t i m e  s t e p    1201                              ( at time 5.9993996E-01 )

 nodal point  x-rot      y-rot       z-rot       x-rot vel   y-rot vel   z-rot vel   x-rot acc   y-rot acc   z-rot acc
    15383  1.12822E-06 2.03357E-05 4.98682E-07-2.69605E-06 5.95143E-05 3.95961E-06 2.63960E-05-2.49239E-04 5.31044E-05



 n o d a l   p r i n t   o u t   f o r   t i m e  s t e p    1401                              ( at time 6.9992995E-01 )

 nodal point  x-disp     y-disp      z-disp      x-vel       y-vel       z-vel      x-accl      y-accl      z-accl      x-coor      y-coor      z-coor
    15383 -4.97792E-04-3.43734E-05 1.30276E-02-8.13084E-04 2.61132E-04 3.82521E-02 9.67299E-03 5.41652E-03 7.53538E-02 1.24385E+02 5.73319E+02-3.36683E+02



 n o d a l   p r i n t   o u t   f o r   t i m e  s t e p    1401                              ( at time 6.9992995E-01 )

 nodal point  x-rot      y-rot       z-rot       x-rot vel   y-rot vel   z-rot vel   x-rot acc   y-rot acc   z-rot acc
    15383  9.40686E-07 2.62445E-05 2.40797E-07-2.45792E-06 7.00543E-05-2.81682E-06 2.38150E-06 1.05410E-04-6.77711E-05



 n o d a l   p r i n t   o u t   f o r   t i m e  s t e p    1601                              ( at time 7.9991994E-01 )

 nodal point  x-disp     y-disp      z-disp      x-vel       y-vel       z-vel      x-accl      y-accl      z-accl      x-coor      y-coor      z-coor
    15383 -5.51410E-04-3.05082E-05 1.72291E-02-3.54775E-04 2.70281E-04 4.37017E-02 4.58355E-03 9.15023E-05 5.45006E-02 1.24385E+02 5.73315E+02-3.36682E+02



 n o d a l   p r i n t   o u t   f o r   t i m e  s t e p    1601                              ( at time 7.9991994E-01 )

 nodal point  x-rot      y-rot       z-rot       x-rot vel   y-rot vel   z-rot vel   x-rot acc   y-rot acc   z-rot acc
    15383  8.05525E-07 3.43416E-05 1.92204E-07 2.40950E-06 9.08305E-05-3.29006E-06 4.86791E-05 2.07783E-04-4.73279E-06



 n o d a l   p r i n t   o u t   f o r   t i m e  s t e p    1801                              ( at time 8.9990994E-01 )

 nodal point  x-disp     y-disp      z-disp      x-vel       y-vel       z-vel      x-accl      y-accl      z-accl      x-coor      y-coor      z-coor
    15383 -6.49960E-04-1.97749E-05 2.15379E-02-2.23877E-03 2.14393E-05 4.29664E-02-1.88418E-02-2.48867E-03-7.35286E-03 1.24385E+02 5.73312E+02-3.36681E+02



 n o d a l   p r i n t   o u t   f o r   t i m e  s t e p    1801                              ( at time 8.9990994E-01 )

 nodal point  x-rot      y-rot       z-rot       x-rot vel   y-rot vel   z-rot vel   x-rot acc   y-rot acc   z-rot acc
    15383  7.77911E-07 4.24553E-05 1.77610E-07-2.45021E-06 7.81265E-05 1.91224E-06-4.86020E-05-1.27053E-04 5.20282E-05



 n o d a l   p r i n t   o u t   f o r   t i m e  s t e p    2001                              ( at time 9.9989993E-01 )

 nodal point  x-disp     y-disp      z-disp      x-vel       y-vel       z-vel      x-accl      y-accl      z-accl      x-coor      y-coor      z-coor
    15383 -9.22461E-04-1.07634E-05 2.59251E-02-2.61751E-03-2.65929E-04 4.52917E-02-3.78781E-03-2.87397E-03 2.32551E-02 1.24385E+02 5.73308E+02-3.36679E+02



 n o d a l   p r i n t   o u t   f o r   t i m e  s t e p    2001                              ( at time 9.9989993E-01 )

 nodal point  x-rot      y-rot       z-rot       x-rot vel   y-rot vel   z-rot vel   x-rot acc   y-rot acc   z-rot acc
    15383  5.60982E-07 5.08019E-05 1.70754E-07-1.32948E-06 9.66502E-05 3.23249E-06 1.12085E-05 1.85256E-04 1.32038E-05



 n o d a l   p r i n t   o u t   f o r   t i m e  s t e p    2201                              ( at time 1.0998899E+00 )

 nodal point  x-disp     y-disp      z-disp      x-vel       y-vel       z-vel      x-accl      y-accl      z-accl      x-coor      y-coor      z-coor
    15383 -1.12529E-03-3.17205E-05 3.05869E-02-2.12007E-03 9.04451E-05 4.75218E-02 4.97495E-03 3.56410E-03 2.23034E-02 1.24384E+02 5.73304E+02-3.36678E+02



 n o d a l   p r i n t   o u t   f o r   t i m e  s t e p    2201                              ( at time 1.0998899E+00 )

 nodal point  x-rot      y-rot       z-rot       x-rot vel   y-rot vel   z-rot vel   x-rot acc   y-rot acc   z-rot acc
    15383  5.77373E-07 6.06588E-05 4.13809E-07 4.85419E-06 8.81797E-05-2.12111E-06 6.18428E-05-8.47132E-05-5.35414E-05



 n o d a l   p r i n t   o u t   f o r   t i m e  s t e p    2401                              ( at time 1.1998799E+00 )

 nodal point  x-disp     y-disp      z-disp      x-vel       y-vel       z-vel      x-accl      y-accl      z-accl      x-coor      y-coor      z-coor
    15383 -1.27117E-03-2.75429E-05 3.53192E-02-1.14308E-03-4.94664E-05 4.68458E-02 9.77088E-03-1.39926E-03-6.76085E-03 1.24384E+02 5.73300E+02-3.36677E+02



 n o d a l   p r i n t   o u t   f o r   t i m e  s t e p    2401                              ( at time 1.1998799E+00 )

 nodal point  x-rot      y-rot       z-rot       x-rot vel   y-rot vel   z-rot vel   x-rot acc   y-rot acc   z-rot acc
    15383  9.42578E-07 6.86666E-05 3.09700E-07 4.57347E-06 7.69417E-05-1.09898E-06-2.80746E-06-1.12392E-04 1.02224E-05



 n o d a l   p r i n t   o u t   f o r   t i m e  s t e p    2601                              ( at time 1.2998699E+00 )

 nodal point  x-disp     y-disp      z-disp      x-vel       y-vel       z-vel      x-accl      y-accl      z-accl      x-coor      y-coor      z-coor
    15383 -1.44089E-03-1.96333E-05 3.98489E-02-2.15355E-03-3.84593E-05 4.32342E-02-1.01057E-02 1.10083E-04-3.61194E-02 1.24384E+02 5.73296E+02-3.36676E+02



 n o d a l   p r i n t   o u t   f o r   t i m e  s t e p    2601                              ( at time 1.2998699E+00 )

 nodal point  x-rot      y-rot       z-rot       x-rot vel   y-rot vel   z-rot vel   x-rot acc   y-rot acc   z-rot acc
    15383  1.20110E-06 7.66104E-05 2.41419E-07-2.94278E-06 9.15167E-05 1.11661E-06-7.51700E-05 1.45765E-04 2.21581E-05



 n o d a l   p r i n t   o u t   f o r   t i m e  s t e p    2801                              ( at time 1.3998599E+00 )

 nodal point  x-disp     y-disp      z-disp      x-vel       y-vel       z-vel      x-accl      y-accl      z-accl      x-coor      y-coor      z-coor
    15383 -1.71473E-03-1.99144E-05 4.38627E-02-2.79338E-03 1.77612E-04 3.72954E-02-6.39896E-03 2.16093E-03-5.93943E-02 1.24384E+02 5.73292E+02-3.36675E+02



 n o d a l   p r i n t   o u t   f o r   t i m e  s t e p    2801                              ( at time 1.3998599E+00 )

 nodal point  x-rot      y-rot       z-rot       x-rot vel   y-rot vel   z-rot vel   x-rot acc   y-rot acc   z-rot acc
    15383  7.06563E-07 8.56086E-05 3.93438E-07-4.77298E-06 8.55044E-05-1.76974E-06-1.83038E-05-6.01286E-05-2.88663E-05



 n o d a l   p r i n t   o u t   f o r   t i m e  s t e p    3001                              ( at time 1.4998499E+00 )

 nodal point  x-disp     y-disp      z-disp      x-vel       y-vel       z-vel      x-accl      y-accl      z-accl      x-coor      y-coor      z-coor
    15383 -1.96773E-03-5.68191E-06 4.74681E-02-1.89595E-03 9.55351E-05 3.51721E-02 8.97518E-03-8.20855E-04-2.12354E-02 1.24383E+02 5.73289E+02-3.36675E+02



 n o d a l   p r i n t   o u t   f o r   t i m e  s t e p    3001                              ( at time 1.4998499E+00 )

 nodal point  x-rot      y-rot       z-rot       x-rot vel   y-rot vel   z-rot vel   x-rot acc   y-rot acc   z-rot acc
    15383  2.86982E-07 9.32075E-05 3.11066E-07-2.05226E-06 6.52331E-05 8.66483E-07 2.72100E-05-2.02734E-04 2.63648E-05



 n o d a l   p r i n t   o u t   f o r   t i m e  s t e p    3201                              ( at time 1.5998399E+00 )

 nodal point  x-disp     y-disp      z-disp      x-vel       y-vel       z-vel      x-accl      y-accl      z-accl      x-coor      y-coor      z-coor
    15383 -2.15100E-03 2.02319E-05 5.08850E-02-2.00690E-03 1.82016E-04 3.24618E-02-1.10957E-03 8.64892E-04-2.71051E-02 1.24383E+02 5.73286E+02-3.36674E+02



 n o d a l   p r i n t   o u t   f o r   t i m e  s t e p    3201                              ( at time 1.5998399E+00 )

 nodal point  x-rot      y-rot       z-rot       x-rot vel   y-rot vel   z-rot vel   x-rot acc   y-rot acc   z-rot acc
    15383 -5.01894E-08 9.89527E-05 1.22543E-07-1.92591E-06 5.74162E-05-4.08265E-06 1.26358E-06-7.81767E-05-4.94963E-05



 n o d a l   p r i n t   o u t   f o r   t i m e  s t e p    3401                              ( at time 1.6998299E+00 )

 nodal point  x-disp     y-disp      z-disp      x-vel       y-vel       z-vel      x-accl      y-accl      z-accl      x-coor      y-coor      z-coor
    15383 -2.35634E-03 3.48241E-05 5.38574E-02-2.18589E-03 2.48813E-04 2.65872E-02-1.79013E-03 6.68037E-04-5.87520E-02 1.24383E+02 5.73284E+02-3.36675E+02



 n o d a l   p r i n t   o u t   f o r   t i m e  s t e p    3401                              ( at time 1.6998299E+00 )

 nodal point  x-rot      y-rot       z-rot       x-rot vel   y-rot vel   z-rot vel   x-rot acc   y-rot acc   z-rot acc
    15383 -2.96272E-07 1.04853E-04-3.24023E-09-3.99797E-06 5.60257E-05-1.83812E-06-2.07226E-05-1.39058E-05 2.24476E-05



 n o d a l   p r i n t   o u t   f o r   t i m e  s t e p    3601                              ( at time 1.7998199E+00 )

 nodal point  x-disp     y-disp      z-disp      x-vel       y-vel       z-vel      x-accl      y-accl      z-accl      x-coor      y-coor      z-coor
    15383 -2.55185E-03 4.50381E-05 5.62174E-02-2.17345E-03-8.48192E-05 2.08971E-02 1.24395E-04-3.33666E-03-5.69073E-02 1.24383E+02 5.73282E+02-3.36675E+02



 n o d a l   p r i n t   o u t   f o r   t i m e  s t e p    3601                              ( at time 1.7998199E+00 )

 nodal point  x-rot      y-rot       z-rot       x-rot vel   y-rot vel   z-rot vel   x-rot acc   y-rot acc   z-rot acc
    15383 -4.77192E-07 1.10370E-04-8.20666E-09-6.25092E-07 4.69929E-05 2.83592E-06 3.37322E-05-9.03378E-05 4.67452E-05



 n o d a l   p r i n t   o u t   f o r   t i m e  s t e p    3801                              ( at time 1.8998099E+00 )

 nodal point  x-disp     y-disp      z-disp      x-vel       y-vel       z-vel      x-accl      y-accl      z-accl      x-coor      y-coor      z-coor
    15383 -2.81653E-03 4.43190E-05 5.81450E-02-2.86974E-03-8.13867E-05 1.77444E-02-6.96353E-03 3.43289E-05-3.15298E-02 1.24383E+02 5.73280E+02-3.36676E+02



 n o d a l   p r i n t   o u t   f o r   t i m e  s t e p    3801                              ( at time 1.8998099E+00 )

 nodal point  x-rot      y-rot       z-rot       x-rot vel   y-rot vel   z-rot vel   x-rot acc   y-rot acc   z-rot acc
    15383 -7.43905E-07 1.14265E-04 7.11352E-08 1.10700E-06 3.12169E-05 3.46797E-07 1.73227E-05-1.57776E-04-2.48937E-05



 n o d a l   p r i n t   o u t   f o r   t i m e  s t e p    4001                              ( at time 1.9997999E+00 )

 nodal point  x-disp     y-disp      z-disp      x-vel       y-vel       z-vel      x-accl      y-accl      z-accl      x-coor      y-coor      z-coor
    15383 -3.05467E-03 3.62640E-05 5.97694E-02-2.25541E-03 2.13656E-06 1.49990E-02 6.14387E-03 8.35316E-04-2.74571E-02 1.24382E+02 5.73279E+02-3.36677E+02



 n o d a l   p r i n t   o u t   f o r   t i m e  s t e p    4001                              ( at time 1.9997999E+00 )

 nodal point  x-rot      y-rot       z-rot       x-rot vel   y-rot vel   z-rot vel   x-rot acc   y-rot acc   z-rot acc
    15383 -5.55063E-07 1.16931E-04 9.10829E-08 3.29786E-06 2.46428E-05-1.24853E-06 2.19107E-05-6.57472E-05-1.59548E-05



 n o d a l   p r i n t   o u t   f o r   t i m e  s t e p    4201                              ( at time 2.0997899E+00 )

 nodal point  x-disp     y-disp      z-disp      x-vel       y-vel       z-vel      x-accl      y-accl      z-accl      x-coor      y-coor      z-coor
    15383 -3.27472E-03 3.65880E-05 6.10377E-02-2.29625E-03 4.62651E-05 1.05625E-02-4.08468E-04 4.41330E-04-4.43686E-02 1.24382E+02 5.73278E+02-3.36678E+02



 n o d a l   p r i n t   o u t   f o r   t i m e  s t e p    4201                              ( at time 2.0997899E+00 )

 nodal point  x-rot      y-rot       z-rot       x-rot vel   y-rot vel   z-rot vel   x-rot acc   y-rot acc   z-rot acc
    15383 -2.77398E-07 1.18195E-04 9.81041E-08-1.48623E-06 2.80243E-06-1.94855E-06-4.78457E-05-2.18426E-04-7.00095E-06



 n o d a l   p r i n t   o u t   f o r   t i m e  s t e p    4401                              ( at time 2.1997798E+00 )

 nodal point  x-disp     y-disp      z-disp      x-vel       y-vel       z-vel      x-accl      y-accl      z-accl      x-coor      y-coor      z-coor
    15383 -3.54954E-03 4.39537E-05 6.18239E-02-2.97717E-03 1.68061E-05 4.94816E-03-6.80982E-03-2.94620E-04-5.61496E-02 1.24382E+02 5.73277E+02-3.36680E+02



 n o d a l   p r i n t   o u t   f o r   t i m e  s t e p    4401                              ( at time 2.1997798E+00 )

 nodal point  x-rot      y-rot       z-rot       x-rot vel   y-rot vel   z-rot vel   x-rot acc   y-rot acc   z-rot acc
    15383 -4.54961E-07 1.18124E-04 6.39296E-08-1.35286E-06-3.49198E-06 4.85026E-07 1.33386E-06-6.29505E-05 2.43382E-05



 n o d a l   p r i n t   o u t   f o r   t i m e  s t e p    4601                              ( at time 2.2997698E+00 )

 nodal point  x-disp     y-disp      z-disp      x-vel       y-vel       z-vel      x-accl      y-accl      z-accl      x-coor      y-coor      z-coor
    15383 -3.86789E-03 5.11262E-05 6.20360E-02-3.51009E-03 1.66522E-04-8.50554E-05-5.32971E-03 1.49731E-03-5.03371E-02 1.24381E+02 5.73277E+02-3.36682E+02



 n o d a l   p r i n t   o u t   f o r   t i m e  s t e p    4601                              ( at time 2.2997698E+00 )

 nodal point  x-rot      y-rot       z-rot       x-rot vel   y-rot vel   z-rot vel   x-rot acc   y-rot acc   z-rot acc
    15383 -8.48558E-07 1.17640E-04 1.29355E-07-4.70674E-06-1.56219E-05 1.36362E-06-3.35421E-05-1.21311E-04 8.78681E-06



 n o d a l   p r i n t   o u t   f o r   t i m e  s t e p    4801                              ( at time 2.3997598E+00 )

 nodal point  x-disp     y-disp      z-disp      x-vel       y-vel       z-vel      x-accl      y-accl      z-accl      x-coor      y-coor      z-coor
    15383 -4.23262E-03 7.42539E-05 6.19045E-02-3.51954E-03 2.17597E-04-2.58804E-03-9.45761E-05 5.10797E-04-2.50324E-02 1.24381E+02 5.73277E+02-3.36685E+02



 n o d a l   p r i n t   o u t   f o r   t i m e  s t e p    4801                              ( at time 2.3997598E+00 )

 nodal point  x-rot      y-rot       z-rot       x-rot vel   y-rot vel   z-rot vel   x-rot acc   y-rot acc   z-rot acc
    15383 -1.37668E-06 1.14844E-04-6.11865E-08-5.69776E-06-3.78187E-05-3.42315E-06-9.91120E-06-2.21991E-04-4.78726E-05



 n o d a l   p r i n t   o u t   f o r   t i m e  s t e p    5001                              ( at time 2.4997498E+00 )

 nodal point  x-disp     y-disp      z-disp      x-vel       y-vel       z-vel      x-accl      y-accl      z-accl      x-coor      y-coor      z-coor
    15383 -4.61182E-03 9.42611E-05 6.14975E-02-4.00808E-03 2.68340E-04-6.33878E-03-4.88586E-03 5.07486E-04-3.75111E-02 1.24381E+02 5.73277E+02-3.36687E+02



 n o d a l   p r i n t   o u t   f o r   t i m e  s t e p    5001                              ( at time 2.4997498E+00 )

 nodal point  x-rot      y-rot       z-rot       x-rot vel   y-rot vel   z-rot vel   x-rot acc   y-rot acc   z-rot acc
    15383 -1.79533E-06 1.10277E-04-1.56608E-07-3.62504E-06-5.48513E-05-1.84715E-06 2.07293E-05-1.70343E-04 1.57616E-05



 n o d a l   p r i n t   o u t   f o r   t i m e  s t e p    5201                              ( at time 2.5997398E+00 )

 nodal point  x-disp     y-disp      z-disp      x-vel       y-vel       z-vel      x-accl      y-accl      z-accl      x-coor      y-coor      z-coor
    15383 -5.05291E-03 1.11905E-04 6.05969E-02-4.82602E-03 1.79753E-04-1.15830E-02-8.18026E-03-8.85961E-04-5.24473E-02 1.24380E+02 5.73278E+02-3.36690E+02



 n o d a l   p r i n t   o u t   f o r   t i m e  s t e p    5201                              ( at time 2.5997398E+00 )

 nodal point  x-rot      y-rot       z-rot       x-rot vel   y-rot vel   z-rot vel   x-rot acc   y-rot acc   z-rot acc
    15383 -2.12895E-06 1.04004E-04-2.41908E-07-4.42625E-06-7.17015E-05-7.29125E-07-8.01295E-06-1.68519E-04 1.11814E-05



 n o d a l   p r i n t   o u t   f o r   t i m e  s t e p    5401                              ( at time 2.6997298E+00 )

 nodal point  x-disp     y-disp      z-disp      x-vel       y-vel       z-vel      x-accl      y-accl      z-accl      x-coor      y-coor      z-coor
    15383 -5.56983E-03 1.21721E-04 5.91887E-02-5.81656E-03-1.75371E-04-1.61713E-02-9.90637E-03-3.55160E-03-4.58873E-02 1.24380E+02 5.73279E+02-3.36693E+02



 n o d a l   p r i n t   o u t   f o r   t i m e  s t e p    5401                              ( at time 2.6997298E+00 )

 nodal point  x-rot      y-rot       z-rot       x-rot vel   y-rot vel   z-rot vel   x-rot acc   y-rot acc   z-rot acc
    15383 -2.38078E-06 9.64905E-05-3.06868E-07-1.24455E-06-7.90794E-05 1.78662E-06 3.18202E-05-7.37856E-05 2.51599E-05



 n o d a l   p r i n t   o u t   f o r   t i m e  s t e p    5601                              ( at time 2.7997198E+00 )

 nodal point  x-disp     y-disp      z-disp      x-vel       y-vel       z-vel      x-accl      y-accl      z-accl      x-coor      y-coor      z-coor
    15383 -6.21639E-03 1.11485E-04 5.74114E-02-6.95975E-03-4.75298E-05-1.90081E-02-1.14330E-02 1.27855E-03-2.83713E-02 1.24379E+02 5.73281E+02-3.36697E+02



 n o d a l   p r i n t   o u t   f o r   t i m e  s t e p    5601                              ( at time 2.7997198E+00 )

 nodal point  x-rot      y-rot       z-rot       x-rot vel   y-rot vel   z-rot vel   x-rot acc   y-rot acc   z-rot acc
    15383 -2.46251E-06 8.69975E-05-1.86678E-07 1.17740E-06-1.14267E-04-4.27889E-07 2.42219E-05-3.51908E-04-2.21473E-05



 n o d a l   p r i n t   o u t   f o r   t i m e  s t e p    5801                              ( at time 2.8997098E+00 )

 nodal point  x-disp     y-disp      z-disp      x-vel       y-vel       z-vel      x-accl      y-accl      z-accl      x-coor      y-coor      z-coor
    15383 -6.91299E-03 9.66573E-05 5.54305E-02-7.04360E-03-1.57197E-04-2.04246E-02-8.38592E-04-1.09679E-03-1.41667E-02 1.24378E+02 5.73282E+02-3.36701E+02



 n o d a l   p r i n t   o u t   f o r   t i m e  s t e p    5801                              ( at time 2.8997098E+00 )

 nodal point  x-rot      y-rot       z-rot       x-rot vel   y-rot vel   z-rot vel   x-rot acc   y-rot acc   z-rot acc
    15383 -2.18969E-06 7.43265E-05-1.34030E-07 3.21694E-06-1.32795E-04-8.31715E-07 2.03974E-05-1.85304E-04-4.03867E-06



 n o d a l   p r i n t   o u t   f o r   t i m e  s t e p    6001                              ( at time 2.9996998E+00 )

 nodal point  x-disp     y-disp      z-disp      x-vel       y-vel       z-vel      x-accl      y-accl      z-accl      x-coor      y-coor      z-coor
    15383 -7.65147E-03 9.09101E-05 5.32548E-02-7.95307E-03-1.22770E-04-2.34001E-02-9.09560E-03 3.44310E-04-2.97575E-02 1.24378E+02 5.73284E+02-3.36705E+02



 n o d a l   p r i n t   o u t   f o r   t i m e  s t e p    6001                              ( at time 2.9996998E+00 )

 nodal point  x-rot      y-rot       z-rot       x-rot vel   y-rot vel   z-rot vel   x-rot acc   y-rot acc   z-rot acc
    15383 -1.88200E-06 6.08753E-05-5.31674E-08 1.48397E-06-1.40359E-04 2.63710E-07-1.73314E-05-7.56496E-05 1.09553E-05



 n o d a l   p r i n t   o u t   f o r   t i m e  s t e p    6201                              ( at time 3.0996898E+00 )

 nodal point  x-disp     y-disp      z-disp      x-vel       y-vel       z-vel      x-accl      y-accl      z-accl      x-coor      y-coor      z-coor
    15383 -8.52332E-03 8.23414E-05 5.07714E-02-9.43428E-03 7.90469E-06-2.57574E-02-1.48136E-02 1.30688E-03-2.35753E-02 1.24377E+02 5.73286E+02-3.36709E+02



 n o d a l   p r i n t   o u t   f o r   t i m e  s t e p    6201                              ( at time 3.0996898E+00 )

 nodal point  x-rot      y-rot       z-rot       x-rot vel   y-rot vel   z-rot vel   x-rot acc   y-rot acc   z-rot acc
    15383 -1.84432E-06 4.62515E-05-8.80255E-08-9.17110E-07-1.53404E-04-2.22445E-06-2.40133E-05-1.30459E-04-2.48841E-05



 n o d a l   p r i n t   o u t   f o r   t i m e  s t e p    6401                              ( at time 3.1996798E+00 )

 nodal point  x-disp     y-disp      z-disp      x-vel       y-vel       z-vel      x-accl      y-accl      z-accl      x-coor      y-coor      z-coor
    15383 -9.49769E-03 7.21832E-05 4.82166E-02-9.98435E-03-8.15523E-05-2.50006E-02-5.50130E-03-8.94658E-04 7.56886E-03 1.24376E+02 5.73289E+02-3.36713E+02



 n o d a l   p r i n t   o u t   f o r   t i m e  s t e p    6401                              ( at time 3.1996798E+00 )

 nodal point  x-rot      y-rot       z-rot       x-rot vel   y-rot vel   z-rot vel   x-rot acc   y-rot acc   z-rot acc
    15383 -1.89217E-06 3.04344E-05 4.07802E-09-7.13288E-07-1.67039E-04 8.98797E-07 2.03842E-06-1.36365E-04 3.12356E-05



 n o d a l   p r i n t   o u t   f o r   t i m e  s t e p    6601                              ( at time 3.2996698E+00 )

 nodal point  x-disp     y-disp      z-disp      x-vel       y-vel       z-vel      x-accl      y-accl      z-accl      x-coor      y-coor      z-coor
    15383 -1.05142E-02 7.26086E-05 4.58286E-02-1.03562E-02 3.10981E-05-2.27971E-02-3.71932E-03 1.12662E-03 2.20365E-02 1.24375E+02 5.73291E+02-3.36718E+02



 n o d a l   p r i n t   o u t   f o r   t i m e  s t e p    6601                              ( at time 3.2996698E+00 )

 nodal point  x-rot      y-rot       z-rot       x-rot vel   y-rot vel   z-rot vel   x-rot acc   y-rot acc   z-rot acc
    15383 -2.05958E-06 1.32990E-05 2.80761E-08-1.35061E-06-1.76495E-04 3.77212E-07-6.37384E-06-9.45715E-05-5.21638E-06



 n o d a l   p r i n t   o u t   f o r   t i m e  s t e p    6801                              ( at time 3.3996598E+00 )

 nodal point  x-disp     y-disp      z-disp      x-vel       y-vel       z-vel      x-accl      y-accl      z-accl      x-coor      y-coor      z-coor
    15383 -1.15843E-02 7.44909E-05 4.36516E-02-1.09372E-02 4.35543E-05-2.07558E-02-5.80968E-03 1.24574E-04 2.04150E-02 1.24374E+02 5.73293E+02-3.36722E+02



 n o d a l   p r i n t   o u t   f o r   t i m e  s t e p    6801                              ( at time 3.3996598E+00 )

 nodal point  x-rot      y-rot       z-rot       x-rot vel   y-rot vel   z-rot vel   x-rot acc   y-rot acc   z-rot acc
    15383 -2.00577E-06-4.39073E-06-3.38488E-08-1.35117E-06-1.76651E-04-1.42517E-06-5.58826E-09-1.55954E-06-1.80256E-05



 n o d a l   p r i n t   o u t   f o r   t i m e  s t e p    7001                              ( at time 3.4996498E+00 )

 nodal point  x-disp     y-disp      z-disp      x-vel       y-vel       z-vel      x-accl      y-accl      z-accl      x-coor      y-coor      z-coor
    15383 -1.27094E-02 7.18642E-05 4.16624E-02-1.16382E-02-7.42353E-05-1.89957E-02-7.01072E-03-1.17802E-03 1.76030E-02 1.24373E+02 5.73294E+02-3.36726E+02



 n o d a l   p r i n t   o u t   f o r   t i m e  s t e p    7001                              ( at time 3.4996498E+00 )

 nodal point  x-rot      y-rot       z-rot       x-rot vel   y-rot vel   z-rot vel   x-rot acc   y-rot acc   z-rot acc
    15383 -1.90213E-06-2.15619E-05-5.25041E-08 1.57834E-06-1.71277E-04 1.09374E-06 2.92980E-05 5.37446E-05 2.51916E-05



 n o d a l   p r i n t   o u t   f o r   t i m e  s t e p    7201                              ( at time 3.5996397E+00 )

 nodal point  x-disp     y-disp      z-disp      x-vel       y-vel       z-vel      x-accl      y-accl      z-accl      x-coor      y-coor      z-coor
    15383 -1.38992E-02 5.51709E-05 3.98840E-02-1.18363E-02-2.75433E-04-1.62287E-02-1.98151E-03-2.01218E-03 2.76724E-02 1.24372E+02 5.73296E+02-3.36731E+02



 n o d a l   p r i n t   o u t   f o r   t i m e  s t e p    7201                              ( at time 3.5996397E+00 )

 nodal point  x-rot      y-rot       z-rot       x-rot vel   y-rot vel   z-rot vel   x-rot acc   y-rot acc   z-rot acc
    15383 -1.82331E-06-3.84132E-05 6.27790E-08 2.70744E-06-1.63190E-04 2.94346E-06 1.12922E-05 8.08804E-05 1.84990E-05



 n o d a l   p r i n t   o u t   f o r   t i m e  s t e p    7401                              ( at time 3.6996297E+00 )

 nodal point  x-disp     y-disp      z-disp      x-vel       y-vel       z-vel      x-accl      y-accl      z-accl      x-coor      y-coor      z-coor
    15383 -1.50778E-02 3.06046E-05 3.84579E-02-1.17123E-02-2.59953E-04-1.22496E-02 1.23963E-03 1.54810E-04 3.97957E-02 1.24370E+02 5.73297E+02-3.36735E+02



 n o d a l   p r i n t   o u t   f o r   t i m e  s t e p    7401                              ( at time 3.6996297E+00 )

 nodal point  x-rot      y-rot       z-rot       x-rot vel   y-rot vel   z-rot vel   x-rot acc   y-rot acc   z-rot acc
    15383 -1.48837E-06-5.44931E-05 2.50860E-07 4.59754E-06-1.59099E-04 1.41108E-06 1.89029E-05 4.09109E-05-1.53253E-05



 n o d a l   p r i n t   o u t   f o r   t i m e  s t e p    7601                              ( at time 3.7996197E+00 )

 nodal point  x-disp     y-disp      z-disp      x-vel       y-vel       z-vel      x-accl      y-accl      z-accl      x-coor      y-coor      z-coor
    15383 -1.62262E-02 1.30325E-05 3.74025E-02-1.12945E-02-1.69234E-04-8.88623E-03 4.17892E-03 9.07286E-04 3.36367E-02 1.24369E+02 5.73298E+02-3.36739E+02



 n o d a l   p r i n t   o u t   f o r   t i m e  s t e p    7601                              ( at time 3.7996197E+00 )

 nodal point  x-rot      y-rot       z-rot       x-rot vel   y-rot vel   z-rot vel   x-rot acc   y-rot acc   z-rot acc
    15383 -9.37759E-07-6.98815E-05 3.07918E-07 6.04400E-06-1.41829E-04 1.19744E-06 1.44660E-05 1.72725E-04-2.13660E-06



 n o d a l   p r i n t   o u t   f o r   t i m e  s t e p    7801                              ( at time 3.8996097E+00 )

 nodal point  x-disp     y-disp      z-disp      x-vel       y-vel       z-vel      x-accl      y-accl      z-accl      x-coor      y-coor      z-coor
    15383 -1.73284E-02-4.61299E-06 3.66423E-02-1.07279E-02-1.58504E-04-6.49387E-03 5.66611E-03 1.07308E-04 2.39260E-02 1.24368E+02 5.73299E+02-3.36743E+02



 n o d a l   p r i n t   o u t   f o r   t i m e  s t e p    7801                              ( at time 3.8996097E+00 )

 nodal point  x-rot      y-rot       z-rot       x-rot vel   y-rot vel   z-rot vel   x-rot acc   y-rot acc   z-rot acc
    15383 -5.12228E-07-8.27944E-05 3.90712E-07 9.12079E-07-1.12243E-04 1.33110E-06-5.13243E-05 2.95884E-04 1.33671E-06



 n o d a l   p r i n t   o u t   f o r   t i m e  s t e p    8001                              ( at time 3.9995997E+00 )

 nodal point  x-disp     y-disp      z-disp      x-vel       y-vel       z-vel      x-accl      y-accl      z-accl      x-coor      y-coor      z-coor
    15383 -1.83767E-02-2.33679E-05 3.60624E-02-1.02247E-02-1.19595E-04-5.02078E-03 5.03236E-03 3.89133E-04 1.47324E-02 1.24367E+02 5.73299E+02-3.36748E+02



 n o d a l   p r i n t   o u t   f o r   t i m e  s t e p    8001                              ( at time 3.9995997E+00 )

 nodal point  x-rot      y-rot       z-rot       x-rot vel   y-rot vel   z-rot vel   x-rot acc   y-rot acc   z-rot acc
    15383 -3.36223E-07-9.29268E-05 5.34187E-07 4.82377E-07-9.24567E-05-1.12486E-07-4.29746E-06 1.97884E-04-1.44373E-05



 n o d a l   p r i n t   o u t   f o r   t i m e  s t e p    8201                              ( at time 4.0995897E+00 )

 nodal point  x-disp     y-disp      z-disp      x-vel       y-vel       z-vel      x-accl      y-accl      z-accl      x-coor      y-coor      z-coor
    15383 -1.93217E-02-2.93339E-05 3.57137E-02-8.55035E-03-8.34898E-05-1.74244E-03 1.67456E-02 3.61087E-04 3.27866E-02 1.24366E+02 5.73300E+02-3.36752E+02



 n o d a l   p r i n t   o u t   f o r   t i m e  s t e p    8201                              ( at time 4.0995897E+00 )

 nodal point  x-rot      y-rot       z-rot       x-rot vel   y-rot vel   z-rot vel   x-rot acc   y-rot acc   z-rot acc
    15383 -3.03314E-07-1.01010E-04 5.72015E-07 8.04238E-08-6.46077E-05-7.25321E-07-4.01993E-06 2.78517E-04-6.12896E-06



 n o d a l   p r i n t   o u t   f o r   t i m e  s t e p    8401                              ( at time 4.1995797E+00 )

 nodal point  x-disp     y-disp      z-disp      x-vel       y-vel       z-vel      x-accl      y-accl      z-accl      x-coor      y-coor      z-coor
    15383 -2.01041E-02-3.26263E-05 3.57108E-02-7.05205E-03 3.28277E-05 1.57883E-03 1.49846E-02 1.16329E-03 3.32160E-02 1.24365E+02 5.73300E+02-3.36756E+02



 n o d a l   p r i n t   o u t   f o r   t i m e  s t e p    8401                              ( at time 4.1995797E+00 )

 nodal point  x-rot      y-rot       z-rot       x-rot vel   y-rot vel   z-rot vel   x-rot acc   y-rot acc   z-rot acc
    15383 -2.65507E-07-1.05609E-04 6.25341E-07-3.27761E-07-2.67704E-05 7.05605E-07-4.08226E-06 3.78412E-04 1.43107E-05



 n o d a l   p r i n t   o u t   f o r   t i m e  s t e p    8601                              ( at time 4.2995697E+00 )

 nodal point  x-disp     y-disp      z-disp      x-vel       y-vel       z-vel      x-accl      y-accl      z-accl      x-coor      y-coor      z-coor
    15383 -2.07498E-02-3.08578E-05 3.60251E-02-5.72296E-03-4.02743E-06 4.34121E-03 1.32922E-02-3.68588E-04 2.76266E-02 1.24365E+02 5.73299E+02-3.36760E+02



 n o d a l   p r i n t   o u t   f o r   t i m e  s t e p    8601                              ( at time 4.2995697E+00 )

 nodal point  x-rot      y-rot       z-rot       x-rot vel   y-rot vel   z-rot vel   x-rot acc   y-rot acc   z-rot acc
    15383 -2.85484E-07-1.06541E-04 5.66982E-07-6.17115E-07 5.55845E-06-2.38507E-07-2.89383E-06 3.23321E-04-9.44207E-06



 n o d a l   p r i n t   o u t   f o r   t i m e  s t e p    8801                              ( at time 4.3995597E+00 )

 nodal point  x-disp     y-disp      z-disp      x-vel       y-vel       z-vel      x-accl      y-accl      z-accl      x-coor      y-coor      z-coor
    15383 -2.12351E-02-3.16809E-05 3.65303E-02-4.00440E-03-1.26903E-04 5.74527E-03 1.71874E-02-1.22888E-03 1.40421E-02 1.24364E+02 5.73299E+02-3.36764E+02



 n o d a l   p r i n t   o u t   f o r   t i m e  s t e p    8801                              ( at time 4.3995597E+00 )

 nodal point  x-rot      y-rot       z-rot       x-rot vel   y-rot vel   z-rot vel   x-rot acc   y-rot acc   z-rot acc
    15383 -2.82789E-07-1.03877E-04 6.36768E-07 6.33307E-07 4.55636E-05 1.20075E-06 1.25055E-05 4.00092E-04 1.43941E-05



 n o d a l   p r i n t   o u t   f o r   t i m e  s t e p    9001                              ( at time 4.4995497E+00 )

 nodal point  x-disp     y-disp      z-disp      x-vel       y-vel       z-vel      x-accl      y-accl      z-accl      x-coor      y-coor      z-coor
    15383 -2.15577E-02-4.18157E-05 3.72452E-02-2.36871E-03-8.58260E-05 8.88736E-03 1.63584E-02 4.10807E-04 3.14239E-02 1.24364E+02 5.73298E+02-3.36768E+02



 n o d a l   p r i n t   o u t   f o r   t i m e  s t e p    9001                              ( at time 4.4995497E+00 )

 nodal point  x-rot      y-rot       z-rot       x-rot vel   y-rot vel   z-rot vel   x-rot acc   y-rot acc   z-rot acc
    15383 -1.88274E-07-9.68335E-05 7.44034E-07 3.25119E-06 8.86693E-05 9.63748E-07 2.61813E-05 4.31099E-04-2.37029E-06



 n o d a l   p r i n t   o u t   f o r   t i m e  s t e p    9201                              ( at time 4.5995397E+00 )

 nodal point  x-disp     y-disp      z-disp      x-vel       y-vel       z-vel      x-accl      y-accl      z-accl      x-coor      y-coor      z-coor
    15383 -2.17065E-02-5.59659E-05 3.83300E-02-5.62880E-04-1.84397E-04 1.25571E-02 1.80601E-02-9.85813E-04 3.67009E-02 1.24364E+02 5.73297E+02-3.36772E+02



 n o d a l   p r i n t   o u t   f o r   t i m e  s t e p    9201                              ( at time 4.5995397E+00 )

 nodal point  x-rot      y-rot       z-rot       x-rot vel   y-rot vel   z-rot vel   x-rot acc   y-rot acc   z-rot acc
    15383  6.02252E-08-8.63060E-05 8.55068E-07 3.34823E-06 1.19340E-04 6.58137E-07 9.70483E-07 3.06735E-04-3.05642E-06



 n o d a l   p r i n t   o u t   f o r   t i m e  s t e p    9401                              ( at time 4.6995297E+00 )

 nodal point  x-disp     y-disp      z-disp      x-vel       y-vel       z-vel      x-accl      y-accl      z-accl      x-coor      y-coor      z-coor
    15383 -2.16504E-02-6.67706E-05 3.97114E-02 1.58451E-03-7.61480E-06 1.50875E-02 2.14761E-02 1.76800E-03 2.53065E-02 1.24364E+02 5.73296E+02-3.36776E+02



 n o d a l   p r i n t   o u t   f o r   t i m e  s t e p    9401                              ( at time 4.6995297E+00 )

 nodal point  x-rot      y-rot       z-rot       x-rot vel   y-rot vel   z-rot vel   x-rot acc   y-rot acc   z-rot acc
    15383  3.52019E-07-7.19326E-05 9.84036E-07 1.85440E-06 1.68596E-04 8.18436E-07-1.49397E-05 4.92609E-04 1.60315E-06



 n o d a l   p r i n t   o u t   f o r   t i m e  s t e p    9601                              ( at time 4.7995197E+00 )

 nodal point  x-disp     y-disp      z-disp      x-vel       y-vel       z-vel      x-accl      y-accl      z-accl      x-coor      y-coor      z-coor
    15383 -2.13957E-02-6.71203E-05 4.13316E-02 3.40854E-03 7.71344E-06 1.71038E-02 1.82421E-02 1.53298E-04 2.01654E-02 1.24364E+02 5.73295E+02-3.36780E+02



 n o d a l   p r i n t   o u t   f o r   t i m e  s t e p    9601                              ( at time 4.7995197E+00 )

 nodal point  x-rot      y-rot       z-rot       x-rot vel   y-rot vel   z-rot vel   x-rot acc   y-rot acc   z-rot acc
    15383  5.44519E-07-5.26297E-05 1.03558E-06-1.47542E-06 2.17455E-04 2.17455E-07-3.33016E-05 4.88648E-04-6.01042E-06



 n o d a l   p r i n t   o u t   f o r   t i m e  s t e p    9801                              ( at time 4.8995097E+00 )

 nodal point  x-disp     y-disp      z-disp      x-vel       y-vel       z-vel      x-accl      y-accl      z-accl      x-coor      y-coor      z-coor
    15383 -2.09676E-02-6.71776E-05 4.31227E-02 5.14386E-03 7.09192E-05 1.88420E-02 1.73549E-02 6.32121E-04 1.73837E-02 1.24364E+02 5.73293E+02-3.36783E+02



 n o d a l   p r i n t   o u t   f o r   t i m e  s t e p    9801                              ( at time 4.8995097E+00 )

 nodal point  x-rot      y-rot       z-rot       x-rot vel   y-rot vel   z-rot vel   x-rot acc   y-rot acc   z-rot acc
    15383  4.42443E-07-2.90598E-05 1.11122E-06-2.23573E-06 2.51071E-04 6.17627E-07-7.60381E-06 3.36192E-04 4.00213E-06



 n o d a l   p r i n t   o u t   f o r   t i m e  s t e p   10001                              ( at time 4.9994997E+00 )

 nodal point  x-disp     y-disp      z-disp      x-vel       y-vel       z-vel      x-accl      y-accl      z-accl      x-coor      y-coor      z-coor
    15383 -2.03432E-02-5.72048E-05 4.51372E-02 7.28973E-03 1.10336E-04 2.15276E-02 2.14609E-02 3.94201E-04 2.68580E-02 1.24365E+02 5.73291E+02-3.36787E+02



 n o d a l   p r i n t   o u t   f o r   t i m e  s t e p   10001                              ( at time 4.9994997E+00 )

 nodal point  x-rot      y-rot       z-rot       x-rot vel   y-rot vel   z-rot vel   x-rot acc   y-rot acc   z-rot acc
    15383  1.87918E-07-2.14859E-06 1.15984E-06-2.14785E-06 2.87268E-04 9.49556E-07 8.78836E-07 3.61997E-04 3.31961E-06



 n o d a l   p r i n t   o u t   f o r   t i m e  s t e p   10202                              ( at time 5.0999896E+00 )

 nodal point  x-disp     y-disp      z-disp      x-vel       y-vel       z-vel      x-accl      y-accl      z-accl      x-coor      y-coor      z-coor
    15383 -1.95105E-02-3.65806E-05 4.74148E-02 9.23701E-03 2.39231E-04 2.35103E-02 1.93779E-02 1.28267E-03 1.97307E-02 1.24366E+02 5.73289E+02-3.36791E+02



 n o d a l   p r i n t   o u t   f o r   t i m e  s t e p   10202                              ( at time 5.0999896E+00 )

 nodal point  x-rot      y-rot       z-rot       x-rot vel   y-rot vel   z-rot vel   x-rot acc   y-rot acc   z-rot acc
    15383 -1.17096E-07 2.89080E-05 1.13864E-06-4.64899E-06 3.28140E-04 2.42662E-07-2.48896E-05 4.06733E-04-7.03450E-06



 n o d a l   p r i n t   o u t   f o r   t i m e  s t e p   10402                              ( at time 5.1999796E+00 )

 nodal point  x-disp     y-disp      z-disp      x-vel       y-vel       z-vel      x-accl      y-accl      z-accl      x-coor      y-coor      z-coor
    15383 -1.85082E-02-1.05018E-05 4.97932E-02 1.07403E-02 2.73166E-04 2.36389E-02 1.50344E-02 3.39392E-04 1.28622E-03 1.24367E+02 5.73287E+02-3.36795E+02



 n o d a l   p r i n t   o u t   f o r   t i m e  s t e p   10402                              ( at time 5.1999796E+00 )

 nodal point  x-rot      y-rot       z-rot       x-rot vel   y-rot vel   z-rot vel   x-rot acc   y-rot acc   z-rot acc
    15383 -4.90467E-07 6.34553E-05 1.08946E-06-4.29134E-06 3.59696E-04 1.06509E-06 3.57685E-06 3.15592E-04 8.22506E-06



 n o d a l   p r i n t   o u t   f o r   t i m e  s t e p   10602                              ( at time 5.2999696E+00 )

 nodal point  x-disp     y-disp      z-disp      x-vel       y-vel       z-vel      x-accl      y-accl      z-accl      x-coor      y-coor      z-coor
    15383 -1.73698E-02 9.02123E-06 5.21217E-02 1.19390E-02 1.45129E-04 2.30726E-02 1.19885E-02-1.28051E-03-5.66313E-03 1.24368E+02 5.73285E+02-3.36799E+02



 n o d a l   p r i n t   o u t   f o r   t i m e  s t e p   10602                              ( at time 5.2999696E+00 )

 nodal point  x-rot      y-rot       z-rot       x-rot vel   y-rot vel   z-rot vel   x-rot acc   y-rot acc   z-rot acc
    15383 -8.67080E-07 1.00673E-04 1.10818E-06-5.16343E-06 3.83272E-04 2.36890E-07-8.72172E-06 2.35780E-04-8.28283E-06



 n o d a l   p r i n t   o u t   f o r   t i m e  s t e p   10802                              ( at time 5.3999596E+00 )

 nodal point  x-disp     y-disp      z-disp      x-vel       y-vel       z-vel      x-accl      y-accl      z-accl      x-coor      y-coor      z-coor
    15383 -1.61224E-02 2.60971E-05 5.44075E-02 1.31624E-02 1.80944E-04 2.25687E-02 1.22345E-02 3.58185E-04-5.03962E-03 1.24369E+02 5.73283E+02-3.36803E+02



 n o d a l   p r i n t   o u t   f o r   t i m e  s t e p   10802                              ( at time 5.3999596E+00 )

 nodal point  x-rot      y-rot       z-rot       x-rot vel   y-rot vel   z-rot vel   x-rot acc   y-rot acc   z-rot acc
    15383 -1.21541E-06 1.40187E-04 1.13615E-06-1.39410E-06 4.02623E-04-9.00305E-08 3.76971E-05 1.93534E-04-3.26953E-06



 n o d a l   p r i n t   o u t   f o r   t i m e  s t e p   11002                              ( at time 5.4999496E+00 )

 nodal point  x-disp     y-disp      z-disp      x-vel       y-vel       z-vel      x-accl      y-accl      z-accl      x-coor      y-coor      z-coor
    15383 -1.47310E-02 3.97094E-05 5.66037E-02 1.45918E-02 1.30098E-04 2.12700E-02 1.42955E-02-5.08507E-04-1.29889E-02 1.24371E+02 5.73281E+02-3.36807E+02



 n o d a l   p r i n t   o u t   f o r   t i m e  s t e p   11002                              ( at time 5.4999496E+00 )

 nodal point  x-rot      y-rot       z-rot       x-rot vel   y-rot vel   z-rot vel   x-rot acc   y-rot acc   z-rot acc
    15383 -1.40340E-06 1.81341E-04 1.22661E-06-1.03985E-06 4.19196E-04 1.25977E-06 3.54285E-06 1.65742E-04 1.34994E-05



 n o d a l   p r i n t   o u t   f o r   t i m e  s t e p   11202                              ( at time 5.5999396E+00 )

 nodal point  x-disp     y-disp      z-disp      x-vel       y-vel       z-vel      x-accl      y-accl      z-accl      x-coor      y-coor      z-coor
    15383 -1.32301E-02 5.59796E-05 5.86250E-02 1.53768E-02 2.90384E-04 1.91024E-02 7.85096E-03 1.60302E-03-2.16777E-02 1.24372E+02 5.73280E+02-3.36812E+02



 n o d a l   p r i n t   o u t   f o r   t i m e  s t e p   11202                              ( at time 5.5999396E+00 )

 nodal point  x-rot      y-rot       z-rot       x-rot vel   y-rot vel   z-rot vel   x-rot acc   y-rot acc   z-rot acc
    15383 -1.57525E-06 2.24083E-04 1.29812E-06-4.11694E-06 4.34583E-04-9.67620E-07-3.07740E-05 1.53892E-04-2.22762E-05



 n o d a l   p r i n t   o u t   f o r   t i m e  s t e p   11402                              ( at time 5.6999296E+00 )

 nodal point  x-disp     y-disp      z-disp      x-vel       y-vel       z-vel      x-accl      y-accl      z-accl      x-coor      y-coor      z-coor
    15383 -1.16508E-02 7.84690E-05 6.03878E-02 1.60156E-02 1.91285E-04 1.59936E-02 6.38841E-03-9.91086E-04-3.10911E-02 1.24374E+02 5.73278E+02-3.36816E+02



 n o d a l   p r i n t   o u t   f o r   t i m e  s t e p   11402                              ( at time 5.6999296E+00 )

 nodal point  x-rot      y-rot       z-rot       x-rot vel   y-rot vel   z-rot vel   x-rot acc   y-rot acc   z-rot acc
    15383 -1.89309E-06 2.68204E-04 1.28115E-06-3.97562E-06 4.44478E-04 2.84344E-07 1.41333E-06 9.89576E-05 1.25208E-05



 n o d a l   p r i n t   o u t   f o r   t i m e  s t e p   11602                              ( at time 5.7999195E+00 )

 nodal point  x-disp     y-disp      z-disp      x-vel       y-vel       z-vel      x-accl      y-accl      z-accl      x-coor      y-coor      z-coor
    15383 -1.00325E-02 1.01202E-04 6.18404E-02 1.63846E-02 2.38857E-04 1.33107E-02 3.69035E-03 4.75765E-04-2.68319E-02 1.24375E+02 5.73277E+02-3.36821E+02



 n o d a l   p r i n t   o u t   f o r   t i m e  s t e p   11602                              ( at time 5.7999195E+00 )

 nodal point  x-rot      y-rot       z-rot       x-rot vel   y-rot vel   z-rot vel   x-rot acc   y-rot acc   z-rot acc
    15383 -2.38398E-06 3.12746E-04 1.35362E-06-5.39136E-06 4.44617E-04 8.16480E-07-1.41589E-05 1.38490E-06 5.32191E-06



 n o d a l   p r i n t   o u t   f o r   t i m e  s t e p   11802                              ( at time 5.8999095E+00 )

 nodal point  x-disp     y-disp      z-disp      x-vel       y-vel       z-vel      x-accl      y-accl      z-accl      x-coor      y-coor      z-coor
    15383 -8.37762E-03 1.28017E-04 6.31066E-02 1.67378E-02 2.96167E-04 1.20341E-02 3.53262E-03 5.73155E-04-1.27670E-02 1.24377E+02 5.73276E+02-3.36826E+02



 n o d a l   p r i n t   o u t   f o r   t i m e  s t e p   11802                              ( at time 5.8999095E+00 )

 nodal point  x-rot      y-rot       z-rot       x-rot vel   y-rot vel   z-rot vel   x-rot acc   y-rot acc   z-rot acc
    15383 -2.93054E-06 3.57235E-04 1.35712E-06-4.57158E-06 4.48119E-04 2.83717E-07 8.19866E-06 3.50265E-05-5.32817E-06



 n o d a l   p r i n t   o u t   f o r   t i m e  s t e p   12002                              ( at time 5.9998995E+00 )

 nodal point  x-disp     y-disp      z-disp      x-vel       y-vel       z-vel      x-accl      y-accl      z-accl      x-coor      y-coor      z-coor
    15383 -6.69730E-03 1.60506E-04 6.42250E-02 1.67304E-02 2.94157E-04 1.00698E-02-7.41967E-05-2.00942E-05-1.96453E-02 1.24379E+02 5.73275E+02-3.36832E+02



 n o d a l   p r i n t   o u t   f o r   t i m e  s t e p   12002                              ( at time 5.9998995E+00 )

 nodal point  x-rot      y-rot       z-rot       x-rot vel   y-rot vel   z-rot vel   x-rot acc   y-rot acc   z-rot acc
    15383 -3.42991E-06 4.01687E-04 1.35400E-06-5.05031E-06 4.39385E-04-3.42082E-07-4.78782E-06-8.73480E-05-6.25863E-06



 n o d a l   p r i n t   o u t   f o r   t i m e  s t e p   12202                              ( at time 6.0998895E+00 )

 nodal point  x-disp     y-disp      z-disp      x-vel       y-vel       z-vel      x-accl      y-accl      z-accl      x-coor      y-coor      z-coor
    15383 -5.05259E-03 1.91280E-04 6.51108E-02 1.59503E-02 3.14569E-04 7.63394E-03-7.80101E-03 2.04136E-04-2.43607E-02 1.24380E+02 5.73274E+02-3.36837E+02



 n o d a l   p r i n t   o u t   f o r   t i m e  s t e p   12202                              ( at time 6.0998895E+00 )

 nodal point  x-rot      y-rot       z-rot       x-rot vel   y-rot vel   z-rot vel   x-rot acc   y-rot acc   z-rot acc
    15383 -3.95769E-06 4.44912E-04 1.28048E-06-4.81819E-06 4.27221E-04-5.87503E-07 2.32147E-06-1.21656E-04-2.45445E-06



 n o d a l   p r i n t   o u t   f o r   t i m e  s t e p   12402                              ( at time 6.1998795E+00 )

 nodal point  x-disp     y-disp      z-disp      x-vel       y-vel       z-vel      x-accl      y-accl      z-accl      x-coor      y-coor      z-coor
    15383 -3.49709E-03 2.15237E-04 6.57679E-02 1.52392E-02 2.19139E-04 5.60492E-03-7.11215E-03-9.54398E-04-2.02922E-02 1.24382E+02 5.73274E+02-3.36843E+02



 n o d a l   p r i n t   o u t   f o r   t i m e  s t e p   12402                              ( at time 6.1998795E+00 )

 nodal point  x-rot      y-rot       z-rot       x-rot vel   y-rot vel   z-rot vel   x-rot acc   y-rot acc   z-rot acc
    15383 -4.48226E-06 4.86892E-04 1.32843E-06-3.85579E-06 4.12685E-04 7.10346E-07 9.62497E-06-1.45368E-04 1.29798E-05



 n o d a l   p r i n t   o u t   f o r   t i m e  s t e p   12602                              ( at time 6.2998695E+00 )

 nodal point  x-disp     y-disp      z-disp      x-vel       y-vel       z-vel      x-accl      y-accl      z-accl      x-coor      y-coor      z-coor
    15383 -2.00562E-03 2.36998E-04 6.62518E-02 1.46754E-02 1.94638E-04 4.05452E-03-5.63882E-03-2.45036E-04-1.55056E-02 1.24383E+02 5.73273E+02-3.36849E+02



 n o d a l   p r i n t   o u t   f o r   t i m e  s t e p   12602                              ( at time 6.2998695E+00 )

 nodal point  x-rot      y-rot       z-rot       x-rot vel   y-rot vel   z-rot vel   x-rot acc   y-rot acc   z-rot acc
    15383 -4.89348E-06 5.27004E-04 1.37475E-06-2.53075E-06 3.88787E-04 1.09712E-06 1.32517E-05-2.39008E-04 3.86811E-06



 n o d a l   p r i n t   o u t   f o r   t i m e  s t e p   12802                              ( at time 6.3998595E+00 )

 nodal point  x-disp     y-disp      z-disp      x-vel       y-vel       z-vel      x-accl      y-accl      z-accl      x-coor      y-coor      z-coor
    15383 -5.69916E-04 2.53851E-04 6.65613E-02 1.39984E-02 1.70862E-04 2.07083E-03-6.77003E-03-2.37782E-04-1.98389E-02 1.24385E+02 5.73273E+02-3.36855E+02



 n o d a l   p r i n t   o u t   f o r   t i m e  s t e p   12802                              ( at time 6.3998595E+00 )

 nodal point  x-rot      y-rot       z-rot       x-rot vel   y-rot vel   z-rot vel   x-rot acc   y-rot acc   z-rot acc
    15383 -5.15926E-06 5.64775E-04 1.42647E-06-2.64351E-06 3.69546E-04 1.83219E-07-1.12774E-06-1.92428E-04-9.13991E-06



 n o d a l   p r i n t   o u t   f o r   t i m e  s t e p   13002                              ( at time 6.4998495E+00 )

 nodal point  x-disp     y-disp      z-disp      x-vel       y-vel       z-vel      x-accl      y-accl      z-accl      x-coor      y-coor      z-coor
    15383  7.82343E-04 2.70963E-04 6.66386E-02 1.30446E-02 1.82498E-04-4.80342E-04-9.53884E-03 1.16369E-04-2.55143E-02 1.24386E+02 5.73273E+02-3.36861E+02



 n o d a l   p r i n t   o u t   f o r   t i m e  s t e p   13002                              ( at time 6.4998495E+00 )

 nodal point  x-rot      y-rot       z-rot       x-rot vel   y-rot vel   z-rot vel   x-rot acc   y-rot acc   z-rot acc
    15383 -5.40075E-06 6.00770E-04 1.48561E-06-2.99461E-06 3.50979E-04 4.23397E-07-3.51135E-06-1.85690E-04 2.40203E-06



 n o d a l   p r i n t   o u t   f o r   t i m e  s t e p   13202                              ( at time 6.5998395E+00 )

 nodal point  x-disp     y-disp      z-disp      x-vel       y-vel       z-vel      x-accl      y-accl      z-accl      x-coor      y-coor      z-coor
    15383  2.02331E-03 2.88985E-04 6.64425E-02 1.17976E-02 1.69175E-04-3.52129E-03-1.24714E-02-1.33244E-04-3.04124E-02 1.24387E+02 5.73273E+02-3.36867E+02



 n o d a l   p r i n t   o u t   f o r   t i m e  s t e p   13202                              ( at time 6.5998395E+00 )

 nodal point  x-rot      y-rot       z-rot       x-rot vel   y-rot vel   z-rot vel   x-rot acc   y-rot acc   z-rot acc
    15383 -5.69508E-06 6.34474E-04 1.51442E-06-3.20381E-06 3.22481E-04 1.25904E-06-2.09219E-06-2.85009E-04 8.35720E-06



 n o d a l   p r i n t   o u t   f o r   t i m e  s t e p   13402                              ( at time 6.6998295E+00 )

 nodal point  x-disp     y-disp      z-disp      x-vel       y-vel       z-vel      x-accl      y-accl      z-accl      x-coor      y-coor      z-coor
    15383  3.13148E-03 3.07068E-04 6.59506E-02 1.05290E-02 1.86635E-04-6.06855E-03-1.26875E-02 1.74619E-04-2.54751E-02 1.24388E+02 5.73273E+02-3.36874E+02



 n o d a l   p r i n t   o u t   f o r   t i m e  s t e p   13402                              ( at time 6.6998295E+00 )

 nodal point  x-rot      y-rot       z-rot       x-rot vel   y-rot vel   z-rot vel   x-rot acc   y-rot acc   z-rot acc
    15383 -6.05550E-06 6.64952E-04 1.60055E-06-4.74110E-06 2.89981E-04 4.47950E-07-1.53745E-05-3.25031E-04-8.11169E-06



 n o d a l   p r i n t   o u t   f o r   t i m e  s t e p   13602                              ( at time 6.7998195E+00 )

 nodal point  x-disp     y-disp      z-disp      x-vel       y-vel       z-vel      x-accl      y-accl      z-accl      x-coor      y-coor      z-coor
    15383  4.11710E-03 3.25250E-04 6.52305E-02 9.23076E-03 1.99660E-04-8.22687E-03-1.29838E-02 1.30270E-04-2.15854E-02 1.24389E+02 5.73274E+02-3.36881E+02



 n o d a l   p r i n t   o u t   f o r   t i m e  s t e p   13602                              ( at time 6.7998195E+00 )

 nodal point  x-rot      y-rot       z-rot       x-rot vel   y-rot vel   z-rot vel   x-rot acc   y-rot acc   z-rot acc
    15383 -6.45163E-06 6.92404E-04 1.67940E-06-3.16886E-06 2.63824E-04 1.07622E-07 1.57240E-05-2.61599E-04-3.40362E-06



 n o d a l   p r i n t   o u t   f o r   t i m e  s t e p   13802                              ( at time 6.8998095E+00 )

 nodal point  x-disp     y-disp      z-disp      x-vel       y-vel       z-vel      x-accl      y-accl      z-accl      x-coor      y-coor      z-coor
    15383  4.97029E-03 3.45361E-04 6.42749E-02 7.73250E-03 2.11607E-04-1.09761E-02-1.49841E-02 1.19481E-04-2.74948E-02 1.24390E+02 5.73275E+02-3.36888E+02



 n o d a l   p r i n t   o u t   f o r   t i m e  s t e p   13802                              ( at time 6.8998095E+00 )

 nodal point  x-rot      y-rot       z-rot       x-rot vel   y-rot vel   z-rot vel   x-rot acc   y-rot acc   z-rot acc
    15383 -6.71703E-06 7.16978E-04 1.67133E-06-3.14606E-06 2.26655E-04-3.54282E-07 2.28022E-07-3.71719E-04-4.61951E-06



 n o d a l   p r i n t   o u t   f o r   t i m e  s t e p   14002                              ( at time 6.9997995E+00 )

 nodal point  x-disp     y-disp      z-disp      x-vel       y-vel       z-vel      x-accl      y-accl      z-accl      x-coor      y-coor      z-coor
    15383  5.66299E-03 3.61786E-04 6.30339E-02 6.07502E-03 1.27570E-04-1.37396E-02-1.65764E-02-8.40454E-04-2.76380E-02 1.24391E+02 5.73276E+02-3.36896E+02



 n o d a l   p r i n t   o u t   f o r   t i m e  s t e p   14002                              ( at time 6.9997995E+00 )

 nodal point  x-rot      y-rot       z-rot       x-rot vel   y-rot vel   z-rot vel   x-rot acc   y-rot acc   z-rot acc
    15383 -6.95839E-06 7.38061E-04 1.70135E-06-2.38497E-06 1.96056E-04 5.01622E-07 7.61174E-06-3.06025E-04 8.55991E-06



 n o d a l   p r i n t   o u t   f o r   t i m e  s t e p   14202                              ( at time 7.0997895E+00 )

 nodal point  x-disp     y-disp      z-disp      x-vel       y-vel       z-vel      x-accl      y-accl      z-accl      x-coor      y-coor      z-coor
    15383  6.18581E-03 3.67298E-04 6.15415E-02 4.43913E-03 4.90677E-05-1.59735E-02-1.63605E-02-7.85102E-04-2.23408E-02 1.24391E+02 5.73277E+02-3.36903E+02



 n o d a l   p r i n t   o u t   f o r   t i m e  s t e p   14202                              ( at time 7.0997895E+00 )

 nodal point  x-rot      y-rot       z-rot       x-rot vel   y-rot vel   z-rot vel   x-rot acc   y-rot acc   z-rot acc
    15383 -7.19858E-06 7.56118E-04 1.82020E-06-1.66772E-06 1.65609E-04 1.56948E-06 7.17310E-06-3.04496E-04 1.06797E-05



 n o d a l   p r i n t   o u t   f o r   t i m e  s t e p   14402                              ( at time 7.1997794E+00 )

 nodal point  x-disp     y-disp      z-disp      x-vel       y-vel       z-vel      x-accl      y-accl      z-accl      x-coor      y-coor      z-coor
    15383  6.56421E-03 3.73516E-04 5.98718E-02 3.32100E-03 4.59215E-05-1.73597E-02-1.11824E-02-3.14651E-05-1.38641E-02 1.24392E+02 5.73279E+02-3.36911E+02



 n o d a l   p r i n t   o u t   f o r   t i m e  s t e p   14402                              ( at time 7.1997794E+00 )

 nodal point  x-rot      y-rot       z-rot       x-rot vel   y-rot vel   z-rot vel   x-rot acc   y-rot acc   z-rot acc
    15383 -7.29816E-06 7.71131E-04 1.90549E-06 1.40398E-07 1.35761E-04 1.50546E-06 1.80831E-05-2.98517E-04-6.40266E-07



 n o d a l   p r i n t   o u t   f o r   t i m e  s t e p   14602                              ( at time 7.2997694E+00 )

 nodal point  x-disp     y-disp      z-disp      x-vel       y-vel       z-vel      x-accl      y-accl      z-accl      x-coor      y-coor      z-coor
    15383  6.85627E-03 3.76084E-04 5.80772E-02 2.35558E-03 1.76090E-08-1.85657E-02-9.65513E-03-4.59086E-04-1.20611E-02 1.24392E+02 5.73280E+02-3.36919E+02



 n o d a l   p r i n t   o u t   f o r   t i m e  s t e p   14602                              ( at time 7.2997694E+00 )

 nodal point  x-rot      y-rot       z-rot       x-rot vel   y-rot vel   z-rot vel   x-rot acc   y-rot acc   z-rot acc
    15383 -7.29908E-06 7.83757E-04 2.03007E-06 2.47408E-07 1.15133E-04 8.95536E-07 1.07020E-06-2.06300E-04-6.09990E-06



 n o d a l   p r i n t   o u t   f o r   t i m e  s t e p   14802                              ( at time 7.3997594E+00 )

 nodal point  x-disp     y-disp      z-disp      x-vel       y-vel       z-vel      x-accl      y-accl      z-accl      x-coor      y-coor      z-coor
    15383  7.02136E-03 3.78964E-04 5.61669E-02 1.02147E-03 1.46535E-06-1.95863E-02-1.33425E-02 1.44789E-05-1.02071E-02 1.24392E+02 5.73282E+02-3.36927E+02



 n o d a l   p r i n t   o u t   f o r   t i m e  s t e p   14802                              ( at time 7.3997594E+00 )

 nodal point  x-rot      y-rot       z-rot       x-rot vel   y-rot vel   z-rot vel   x-rot acc   y-rot acc   z-rot acc
    15383 -7.31191E-06 7.94079E-04 2.09816E-06-3.55037E-07 9.27370E-05 1.51081E-06-6.02505E-06-2.23980E-04 6.15335E-06



 n o d a l   p r i n t   o u t   f o r   t i m e  s t e p   15002                              ( at time 7.4997494E+00 )

 nodal point  x-disp     y-disp      z-disp      x-vel       y-vel       z-vel      x-accl      y-accl      z-accl      x-coor      y-coor      z-coor
    15383  7.07367E-03 3.81134E-04 5.41815E-02 1.03882E-04 4.42108E-05-1.99825E-02-9.17676E-03 4.27496E-04-3.96200E-03 1.24392E+02 5.73284E+02-3.36936E+02



 n o d a l   p r i n t   o u t   f o r   t i m e  s t e p   15002                              ( at time 7.4997494E+00 )

 nodal point  x-rot      y-rot       z-rot       x-rot vel   y-rot vel   z-rot vel   x-rot acc   y-rot acc   z-rot acc
    15383 -7.38422E-06 8.02595E-04 2.20582E-06-3.01133E-07 7.85648E-05 1.49042E-06 5.39091E-07-1.41736E-04-2.03952E-07



 n o d a l   p r i n t   o u t   f o r   t i m e  s t e p   15202                              ( at time 7.5997394E+00 )

 nodal point  x-disp     y-disp      z-disp      x-vel       y-vel       z-vel      x-accl      y-accl      z-accl      x-coor      y-coor      z-coor
    15383  7.04381E-03 3.86237E-04 5.22059E-02-6.55601E-04 7.37583E-05-1.94446E-02-7.59559E-03 2.95504E-04 5.37984E-03 1.24392E+02 5.73285E+02-3.36944E+02



 n o d a l   p r i n t   o u t   f o r   t i m e  s t e p   15202                              ( at time 7.5997394E+00 )

 nodal point  x-rot      y-rot       z-rot       x-rot vel   y-rot vel   z-rot vel   x-rot acc   y-rot acc   z-rot acc
    15383 -7.58434E-06 8.09311E-04 2.32275E-06-1.91812E-06 5.92042E-05 6.15569E-07-1.61715E-05-1.93625E-04-8.74935E-06



 n o d a l   p r i n t   o u t   f o r   t i m e  s t e p   15402                              ( at time 7.6997294E+00 )

 nodal point  x-disp     y-disp      z-disp      x-vel       y-vel       z-vel      x-accl      y-accl      z-accl      x-coor      y-coor      z-coor
    15383  6.95001E-03 3.94232E-04 5.03059E-02-1.07874E-03 1.19978E-04-1.84525E-02-4.23187E-03 4.62247E-04 9.92130E-03 1.24392E+02 5.73287E+02-3.36953E+02



 n o d a l   p r i n t   o u t   f o r   t i m e  s t e p   15402                              ( at time 7.6997294E+00 )

 nodal point  x-rot      y-rot       z-rot       x-rot vel   y-rot vel   z-rot vel   x-rot acc   y-rot acc   z-rot acc
    15383 -7.72576E-06 8.14632E-04 2.39392E-06-2.12100E-06 5.26259E-05 3.45136E-07-2.02904E-06-6.57899E-05-2.70460E-06



 n o d a l   p r i n t   o u t   f o r   t i m e  s t e p   15602                              ( at time 7.7997194E+00 )

 nodal point  x-disp     y-disp      z-disp      x-vel       y-vel       z-vel      x-accl      y-accl      z-accl      x-coor      y-coor      z-coor
    15383  6.83225E-03 4.05084E-04 4.85113E-02-1.33560E-03 1.38949E-04-1.75257E-02-2.56877E-03 1.89729E-04 9.26894E-03 1.24392E+02 5.73289E+02-3.36961E+02



 n o d a l   p r i n t   o u t   f o r   t i m e  s t e p   15602                              ( at time 7.7997194E+00 )

 nodal point  x-rot      y-rot       z-rot       x-rot vel   y-rot vel   z-rot vel   x-rot acc   y-rot acc   z-rot acc
    15383 -7.93205E-06 8.19613E-04 2.41945E-06-2.91864E-06 4.75955E-05 1.82543E-07-7.97716E-06-5.03087E-05-1.62609E-06



 n o d a l   p r i n t   o u t   f o r   t i m e  s t e p   15802                              ( at time 7.8997094E+00 )

 nodal point  x-disp     y-disp      z-disp      x-vel       y-vel       z-vel      x-accl      y-accl      z-accl      x-coor      y-coor      z-coor
    15383  6.67893E-03 4.14342E-04 4.67900E-02-1.73403E-03 9.01362E-05-1.69313E-02-3.98472E-03-4.88181E-04 5.94452E-03 1.24392E+02 5.73290E+02-3.36970E+02



 n o d a l   p r i n t   o u t   f o r   t i m e  s t e p   15802                              ( at time 7.8997094E+00 )

 nodal point  x-rot      y-rot       z-rot       x-rot vel   y-rot vel   z-rot vel   x-rot acc   y-rot acc   z-rot acc
    15383 -8.11965E-06 8.24289E-04 2.49810E-06-8.75398E-07 4.58794E-05 1.20639E-06 2.04345E-05-1.71631E-05 1.02395E-05



 n o d a l   p r i n t   o u t   f o r   t i m e  s t e p   16002                              ( at time 7.9996994E+00 )

 nodal point  x-disp     y-disp      z-disp      x-vel       y-vel       z-vel      x-accl      y-accl      z-accl      x-coor      y-coor      z-coor
    15383  6.50764E-03 4.22766E-04 4.51440E-02-1.59753E-03 9.12823E-05-1.58380E-02 1.36515E-03 1.14620E-05 1.09347E-02 1.24392E+02 5.73291E+02-3.36978E+02



 n o d a l   p r i n t   o u t   f o r   t i m e  s t e p   16002                              ( at time 7.9996994E+00 )

 nodal point  x-rot      y-rot       z-rot       x-rot vel   y-rot vel   z-rot vel   x-rot acc   y-rot acc   z-rot acc
    15383 -8.30337E-06 8.28815E-04 2.59434E-06-1.77711E-06 4.64307E-05 1.22605E-06-9.01799E-06 5.51331E-06 1.96574E-07



 n o d a l   p r i n t   o u t   f o r   t i m e  s t e p   16202                              ( at time 8.0996894E+00 )

 nodal point  x-disp     y-disp      z-disp      x-vel       y-vel       z-vel      x-accl      y-accl      z-accl      x-coor      y-coor      z-coor
    15383  6.36443E-03 4.28423E-04 4.36232E-02-1.24820E-03 1.97052E-05-1.46557E-02 3.49360E-03-7.15843E-04 1.18236E-02 1.24392E+02 5.73293E+02-3.36987E+02



 n o d a l   p r i n t   o u t   f o r   t i m e  s t e p   16202                              ( at time 8.0996894E+00 )

 nodal point  x-rot      y-rot       z-rot       x-rot vel   y-rot vel   z-rot vel   x-rot acc   y-rot acc   z-rot acc
    15383 -8.45500E-06 8.33697E-04 2.69728E-06-8.70946E-07 5.15219E-05 1.78478E-06 9.06256E-06 5.09176E-05 5.58785E-06



 n o d a l   p r i n t   o u t   f o r   t i m e  s t e p   16402                              ( at time 8.1996794E+00 )

 nodal point  x-disp     y-disp      z-disp      x-vel       y-vel       z-vel      x-accl      y-accl      z-accl      x-coor      y-coor      z-coor
    15383  6.26656E-03 4.35897E-04 4.22013E-02-6.80881E-04 9.89893E-05-1.38424E-02 5.67378E-03 7.92921E-04 8.13380E-03 1.24392E+02 5.73294E+02-3.36996E+02



 n o d a l   p r i n t   o u t   f o r   t i m e  s t e p   16402                              ( at time 8.1996794E+00 )

 nodal point  x-rot      y-rot       z-rot       x-rot vel   y-rot vel   z-rot vel   x-rot acc   y-rot acc   z-rot acc
    15383 -8.52896E-06 8.39549E-04 2.81152E-06-3.91258E-07 6.52808E-05 9.56374E-07 4.79736E-06 1.37603E-04-8.28485E-06



 n o d a l   p r i n t   o u t   f o r   t i m e  s t e p   16602                              ( at time 8.2996694E+00 )

 nodal point  x-disp     y-disp      z-disp      x-vel       y-vel       z-vel      x-accl      y-accl      z-accl      x-coor      y-coor      z-coor
    15383  6.22931E-03 4.45222E-04 4.08472E-02-7.18007E-05 5.90364E-05-1.31999E-02 6.09141E-03-3.99569E-04 6.42561E-03 1.24392E+02 5.73295E+02-3.37004E+02



 n o d a l   p r i n t   o u t   f o r   t i m e  s t e p   16602                              ( at time 8.2996694E+00 )

 nodal point  x-rot      y-rot       z-rot       x-rot vel   y-rot vel   z-rot vel   x-rot acc   y-rot acc   z-rot acc
    15383 -8.64512E-06 8.46584E-04 2.83449E-06-1.53577E-06 7.58302E-05 9.23756E-07-1.14463E-05 1.05505E-04-3.26220E-07



 n o d a l   p r i n t   o u t   f o r   t i m e  s t e p   16802                              ( at time 8.3996594E+00 )

 nodal point  x-disp     y-disp      z-disp      x-vel       y-vel       z-vel      x-accl      y-accl      z-accl      x-coor      y-coor      z-coor
    15383  6.24596E-03 4.53506E-04 3.95784E-02 4.67985E-04 1.26085E-04-1.20951E-02 5.39840E-03 6.70553E-04 1.10492E-02 1.24392E+02 5.73296E+02-3.37013E+02



 n o d a l   p r i n t   o u t   f o r   t i m e  s t e p   16802                              ( at time 8.3996594E+00 )

 nodal point  x-rot      y-rot       z-rot       x-rot vel   y-rot vel   z-rot vel   x-rot acc   y-rot acc   z-rot acc
    15383 -8.82580E-06 8.54743E-04 2.89688E-06-1.75151E-06 8.85530E-05 9.31793E-07-2.15761E-06 1.27241E-04 8.03802E-08



 n o d a l   p r i n t   o u t   f o r   t i m e  s t e p   17002                              ( at time 8.4996494E+00 )

 nodal point  x-disp     y-disp      z-disp      x-vel       y-vel       z-vel      x-accl      y-accl      z-accl      x-coor      y-coor      z-coor
    15383  6.34337E-03 4.65071E-04 3.84548E-02 1.43476E-03 9.47005E-05-1.03728E-02 9.66869E-03-3.13877E-04 1.72250E-02 1.24392E+02 5.73297E+02-3.37022E+02



 n o d a l   p r i n t   o u t   f o r   t i m e  s t e p   17002                              ( at time 8.4996494E+00 )

 nodal point  x-rot      y-rot       z-rot       x-rot vel   y-rot vel   z-rot vel   x-rot acc   y-rot acc   z-rot acc
    15383 -9.08914E-06 8.64352E-04 2.98224E-06-2.39648E-06 1.05327E-04 1.17073E-06-6.45032E-06 1.67758E-04 2.38963E-06



 n o d a l   p r i n t   o u t   f o r   t i m e  s t e p   17202                              ( at time 8.5996394E+00 )

 nodal point  x-disp     y-disp      z-disp      x-vel       y-vel       z-vel      x-accl      y-accl      z-accl      x-coor      y-coor      z-coor
    15383  6.53798E-03 4.78256E-04 3.75212E-02 2.38081E-03 1.84428E-04-8.32026E-03 9.46154E-03 8.97369E-04 2.05275E-02 1.24392E+02 5.73298E+02-3.37031E+02



 n o d a l   p r i n t   o u t   f o r   t i m e  s t e p   17202                              ( at time 8.5996394E+00 )

 nodal point  x-rot      y-rot       z-rot       x-rot vel   y-rot vel   z-rot vel   x-rot acc   y-rot acc   z-rot acc
    15383 -9.29942E-06 8.75811E-04 3.01795E-06-2.61260E-06 1.22636E-04 2.58755E-08-2.16142E-06 1.73107E-04-1.14497E-05



 n o d a l   p r i n t   o u t   f o r   t i m e  s t e p   17402                              ( at time 8.6996293E+00 )

 nodal point  x-disp     y-disp      z-disp      x-vel       y-vel       z-vel      x-accl      y-accl      z-accl      x-coor      y-coor      z-coor
    15383  6.82646E-03 4.97103E-04 3.68087E-02 3.32916E-03 2.39771E-04-5.97653E-03 9.48437E-03 5.53475E-04 2.34394E-02 1.24392E+02 5.73299E+02-3.37040E+02



 n o d a l   p r i n t   o u t   f o r   t i m e  s t e p   17402                              ( at time 8.6996293E+00 )

 nodal point  x-rot      y-rot       z-rot       x-rot vel   y-rot vel   z-rot vel   x-rot acc   y-rot acc   z-rot acc
    15383 -9.60202E-06 8.88934E-04 3.02947E-06-3.18578E-06 1.40630E-04 1.41694E-07-5.73239E-06 1.79957E-04 1.15829E-06



 n o d a l   p r i n t   o u t   f o r   t i m e  s t e p   17602                              ( at time 8.7996193E+00 )

 nodal point  x-disp     y-disp      z-disp      x-vel       y-vel       z-vel      x-accl      y-accl      z-accl      x-coor      y-coor      z-coor
    15383  7.19409E-03 5.14066E-04 3.63296E-02 3.97591E-03 1.49617E-04-3.62436E-03 6.46816E-03-9.01627E-04 2.35240E-02 1.24393E+02 5.73299E+02-3.37048E+02



 n o d a l   p r i n t   o u t   f o r   t i m e  s t e p   17602                              ( at time 8.7996193E+00 )

 nodal point  x-rot      y-rot       z-rot       x-rot vel   y-rot vel   z-rot vel   x-rot acc   y-rot acc   z-rot acc
    15383 -9.89463E-06 9.03965E-04 3.09703E-06-3.31908E-06 1.59750E-04 1.03423E-06-1.33305E-06 1.91218E-04 8.92628E-06



 n o d a l   p r i n t   o u t   f o r   t i m e  s t e p   17802                              ( at time 8.8996093E+00 )

 nodal point  x-disp     y-disp      z-disp      x-vel       y-vel       z-vel      x-accl      y-accl      z-accl      x-coor      y-coor      z-coor
    15383  7.63139E-03 5.32422E-04 3.61089E-02 4.85063E-03 1.67801E-04-6.50377E-04 8.74801E-03 1.81859E-04 2.97429E-02 1.24393E+02 5.73299E+02-3.37057E+02



 n o d a l   p r i n t   o u t   f o r   t i m e  s t e p   17802                              ( at time 8.8996093E+00 )

 nodal point  x-rot      y-rot       z-rot       x-rot vel   y-rot vel   z-rot vel   x-rot acc   y-rot acc   z-rot acc
    15383 -1.02302E-05 9.20726E-04 3.12268E-06-3.05321E-06 1.75179E-04 6.96991E-07 2.65897E-06 1.54307E-04-3.37275E-06



 n o d a l   p r i n t   o u t   f o r   t i m e  s t e p   18002                              ( at time 8.9995993E+00 )

 nodal point  x-disp     y-disp      z-disp      x-vel       y-vel       z-vel      x-accl      y-accl      z-accl      x-coor      y-coor      z-coor
    15383  8.16677E-03 5.48880E-04 3.62083E-02 5.83638E-03 1.63774E-04 2.58365E-03 9.85848E-03-4.02787E-05 3.23436E-02 1.24394E+02 5.73299E+02-3.37066E+02



 n o d a l   p r i n t   o u t   f o r   t i m e  s t e p   18002                              ( at time 8.9995993E+00 )

 nodal point  x-rot      y-rot       z-rot       x-rot vel   y-rot vel   z-rot vel   x-rot acc   y-rot acc   z-rot acc
    15383 -1.05290E-05 9.39197E-04 3.21532E-06-2.67552E-06 1.94088E-04 8.52631E-07 3.77729E-06 1.89110E-04 1.55656E-06



 n o d a l   p r i n t   o u t   f o r   t i m e  s t e p   18202                              ( at time 9.0995893E+00 )

 nodal point  x-disp     y-disp      z-disp      x-vel       y-vel       z-vel      x-accl      y-accl      z-accl      x-coor      y-coor      z-coor
    15383  8.78981E-03 5.69436E-04 3.66004E-02 6.60759E-03 2.40583E-04 5.27821E-03 7.71296E-03 7.68168E-04 2.69483E-02 1.24394E+02 5.73299E+02-3.37075E+02



 n o d a l   p r i n t   o u t   f o r   t i m e  s t e p   18202                              ( at time 9.0995893E+00 )

 nodal point  x-rot      y-rot       z-rot       x-rot vel   y-rot vel   z-rot vel   x-rot acc   y-rot acc   z-rot acc
    15383 -1.07968E-05 9.59649E-04 3.25529E-06-2.57684E-06 2.14836E-04 2.93684E-07 9.86833E-07 2.07499E-04-5.59003E-06



 n o d a l   p r i n t   o u t   f o r   t i m e  s t e p   18402                              ( at time 9.1995793E+00 )

 nodal point  x-disp     y-disp      z-disp      x-vel       y-vel       z-vel      x-accl      y-accl      z-accl      x-coor      y-coor      z-coor
    15383  9.48128E-03 5.92357E-04 3.72506E-02 7.26738E-03 1.81886E-04 7.66781E-03 6.59848E-03-5.87024E-04 2.38984E-02 1.24395E+02 5.73298E+02-3.37083E+02



 n o d a l   p r i n t   o u t   f o r   t i m e  s t e p   18402                              ( at time 9.1995793E+00 )

 nodal point  x-rot      y-rot       z-rot       x-rot vel   y-rot vel   z-rot vel   x-rot acc   y-rot acc   z-rot acc
    15383 -1.11437E-05 9.81959E-04 3.27214E-06-3.66062E-06 2.29535E-04 8.20941E-07-1.08388E-05 1.47003E-04 5.27311E-06



 n o d a l   p r i n t   o u t   f o r   t i m e  s t e p   18602                              ( at time 9.2995693E+00 )

 nodal point  x-disp     y-disp      z-disp      x-vel       y-vel       z-vel      x-accl      y-accl      z-accl      x-coor      y-coor      z-coor
    15383  1.02342E-02 6.14240E-04 3.81357E-02 7.78823E-03 2.60452E-04 1.00116E-02 5.20913E-03 7.85741E-04 2.34403E-02 1.24396E+02 5.73298E+02-3.37092E+02



 n o d a l   p r i n t   o u t   f o r   t i m e  s t e p   18602                              ( at time 9.2995693E+00 )

 nodal point  x-rot      y-rot       z-rot       x-rot vel   y-rot vel   z-rot vel   x-rot acc   y-rot acc   z-rot acc
    15383 -1.15411E-05 1.00569E-03 3.30921E-06-4.27672E-06 2.42293E-04-2.49233E-07-6.16166E-06 1.27594E-04-1.07028E-05



 n o d a l   p r i n t   o u t   f o r   t i m e  s t e p   18802                              ( at time 9.3995593E+00 )

 nodal point  x-disp     y-disp      z-disp      x-vel       y-vel       z-vel      x-accl      y-accl      z-accl      x-coor      y-coor      z-coor
    15383  1.10301E-02 6.39687E-04 3.92585E-02 8.11292E-03 2.49749E-04 1.23411E-02 3.24715E-03-1.07042E-04 2.32969E-02 1.24396E+02 5.73297E+02-3.37100E+02



 n o d a l   p r i n t   o u t   f o r   t i m e  s t e p   18802                              ( at time 9.3995593E+00 )

 nodal point  x-rot      y-rot       z-rot       x-rot vel   y-rot vel   z-rot vel   x-rot acc   y-rot acc   z-rot acc
    15383 -1.19592E-05 1.03029E-03 3.28172E-06-3.89880E-06 2.50010E-04-1.22236E-08 3.77960E-06 7.71823E-05 2.37033E-06



 n o d a l   p r i n t   o u t   f o r   t i m e  s t e p   19002                              ( at time 9.4995493E+00 )

 nodal point  x-disp     y-disp      z-disp      x-vel       y-vel       z-vel      x-accl      y-accl      z-accl      x-coor      y-coor      z-coor
    15383  1.18594E-02 6.63286E-04 4.05977E-02 8.42511E-03 2.72203E-04 1.43163E-02 3.12229E-03 2.24557E-04 1.97548E-02 1.24397E+02 5.73295E+02-3.37109E+02



 n o d a l   p r i n t   o u t   f o r   t i m e  s t e p   19002                              ( at time 9.4995493E+00 )

 nodal point  x-rot      y-rot       z-rot       x-rot vel   y-rot vel   z-rot vel   x-rot acc   y-rot acc   z-rot acc
    15383 -1.23170E-05 1.05581E-03 3.32413E-06-4.31441E-06 2.58737E-04-1.25837E-07-4.15651E-06 8.72775E-05-1.13624E-06



 n o d a l   p r i n t   o u t   f o r   t i m e  s t e p   19202                              ( at time 9.5995393E+00 )

 nodal point  x-disp     y-disp      z-disp      x-vel       y-vel       z-vel      x-accl      y-accl      z-accl      x-coor      y-coor      z-coor
    15383  1.27022E-02 6.90415E-04 4.20941E-02 8.41772E-03 2.64018E-04 1.55498E-02-7.39165E-05-8.18591E-05 1.23360E-02 1.24398E+02 5.73294E+02-3.37118E+02



 n o d a l   p r i n t   o u t   f o r   t i m e  s t e p   19202                              ( at time 9.5995393E+00 )

 nodal point  x-rot      y-rot       z-rot       x-rot vel   y-rot vel   z-rot vel   x-rot acc   y-rot acc   z-rot acc
    15383 -1.27031E-05 1.08176E-03 3.31484E-06-3.17684E-06 2.61469E-04 7.99779E-08 1.13767E-05 2.73202E-05 2.05833E-06



 n o d a l   p r i n t   o u t   f o r   t i m e  s t e p   19402                              ( at time 9.6995293E+00 )

 nodal point  x-disp     y-disp      z-disp      x-vel       y-vel       z-vel      x-accl      y-accl      z-accl      x-coor      y-coor      z-coor
    15383  1.35351E-02 7.12971E-04 4.36969E-02 8.19860E-03 2.11512E-04 1.65661E-02-2.19140E-03-5.25107E-04 1.01635E-02 1.24399E+02 5.73293E+02-3.37126E+02



 n o d a l   p r i n t   o u t   f o r   t i m e  s t e p   19402                              ( at time 9.6995293E+00 )

 nodal point  x-rot      y-rot       z-rot       x-rot vel   y-rot vel   z-rot vel   x-rot acc   y-rot acc   z-rot acc
    15383 -1.30273E-05 1.10750E-03 3.37017E-06-3.05797E-06 2.54285E-04 5.58096E-07 1.18885E-06-7.18463E-05 4.78166E-06



 n o d a l   p r i n t   o u t   f o r   t i m e  s t e p   19602                              ( at time 9.7995193E+00 )

 nodal point  x-disp     y-disp      z-disp      x-vel       y-vel       z-vel      x-accl      y-accl      z-accl      x-coor      y-coor      z-coor
    15383  1.43423E-02 7.35569E-04 4.53972E-02 7.95545E-03 2.15365E-04 1.74335E-02-2.43178E-03 3.85333E-05 8.67509E-03 1.24400E+02 5.73291E+02-3.37135E+02



 n o d a l   p r i n t   o u t   f o r   t i m e  s t e p   19602                              ( at time 9.7995193E+00 )

 nodal point  x-rot      y-rot       z-rot       x-rot vel   y-rot vel   z-rot vel   x-rot acc   y-rot acc   z-rot acc
    15383 -1.33278E-05 1.13270E-03 3.42909E-06-2.85722E-06 2.51186E-04 8.10062E-07 2.00767E-06-3.09946E-05 2.51992E-06



 n o d a l   p r i n t   o u t   f o r   t i m e  s t e p   19802                              ( at time 9.8995093E+00 )

 nodal point  x-disp     y-disp      z-disp      x-vel       y-vel       z-vel      x-accl      y-accl      z-accl      x-coor      y-coor      z-coor
    15383  1.51186E-02 7.54030E-04 4.71699E-02 7.60468E-03 1.80309E-04 1.80443E-02-3.50803E-03-3.50601E-04 6.10890E-03 1.24400E+02 5.73290E+02-3.37144E+02



 n o d a l   p r i n t   o u t   f o r   t i m e  s t e p   19802                              ( at time 9.8995093E+00 )

 nodal point  x-rot      y-rot       z-rot       x-rot vel   y-rot vel   z-rot vel   x-rot acc   y-rot acc   z-rot acc
    15383 -1.35870E-05 1.15728E-03 3.53174E-06-2.17259E-06 2.40705E-04 1.65564E-06 6.84696E-06-1.04817E-04 8.45664E-06



 n o d a l   p r i n t   o u t   f o r   t i m e  s t e p   20003                              ( at time 9.9999992E+00 )

 nodal point  x-disp     y-disp      z-disp      x-vel       y-vel       z-vel      x-accl      y-accl      z-accl      x-coor      y-coor      z-coor
[...]
    15383  1.44304E+00 2.99395E-01-9.45739E-01 1.03188E-02 2.71242E-03-1.80269E-02-8.36500E-04-1.21749E-04-4.28997E-04



 n o d a l   p r i n t   o u t   f o r   t i m e  s t e p  795110                              ( at time 3.9751472E+02 )

 nodal point  x-disp     y-disp      z-disp      x-vel       y-vel       z-vel      x-accl      y-accl      z-accl      x-coor      y-coor      z-coor
    15383  8.29809E+00 3.04114E+02 1.92619E+02 2.00904E-02 4.14686E+00 2.58669E+00-2.20294E-02 3.29718E-02 5.70150E-02 1.38989E+02 5.41001E+02-7.61270E+02



 n o d a l   p r i n t   o u t   f o r   t i m e  s t e p  795110                              ( at time 3.9751472E+02 )

 nodal point  x-rot      y-rot       z-rot       x-rot vel   y-rot vel   z-rot vel   x-rot acc   y-rot acc   z-rot acc
    15383  1.44406E+00 2.99663E-01-9.47540E-01 1.02306E-02 2.70104E-03-1.80673E-02-8.82020E-04-1.13847E-04-4.04479E-04



 n o d a l   p r i n t   o u t   f o r   t i m e  s t e p  795310                              ( at time 3.9761471E+02 )

 nodal point  x-disp     y-disp      z-disp      x-vel       y-vel       z-vel      x-accl      y-accl      z-accl      x-coor      y-coor      z-coor
    15383  8.29999E+00 3.04529E+02 1.92878E+02 1.80235E-02 4.15026E+00 2.59218E+00-2.06681E-02 3.39487E-02 5.48663E-02 1.39010E+02 5.40938E+02-7.61185E+02



 n o d a l   p r i n t   o u t   f o r   t i m e  s t e p  795310                              ( at time 3.9761471E+02 )

 nodal point  x-rot      y-rot       z-rot       x-rot vel   y-rot vel   z-rot vel   x-rot acc   y-rot acc   z-rot acc
    15383  1.44509E+00 2.99931E-01-9.49352E-01 1.01408E-02 2.69102E-03-1.81093E-02-8.98550E-04-1.00151E-04-4.20466E-04



 n o d a l   p r i n t   o u t   f o r   t i m e  s t e p  795510                              ( at time 3.9771470E+02 )

 nodal point  x-disp     y-disp      z-disp      x-vel       y-vel       z-vel      x-accl      y-accl      z-accl      x-coor      y-coor      z-coor
    15383  8.30169E+00 3.04944E+02 1.93137E+02 1.60304E-02 4.15394E+00 2.59739E+00-1.99357E-02 3.67827E-02 5.21835E-02 1.39031E+02 5.40874E+02-7.61099E+02



 n o d a l   p r i n t   o u t   f o r   t i m e  s t e p  795510                              ( at time 3.9771470E+02 )

 nodal point  x-rot      y-rot       z-rot       x-rot vel   y-rot vel   z-rot vel   x-rot acc   y-rot acc   z-rot acc
    15383  1.44609E+00 3.00200E-01-9.51164E-01 1.00519E-02 2.68277E-03-1.81528E-02-8.88643E-04-8.24911E-05-4.34400E-04



 n o d a l   p r i n t   o u t   f o r   t i m e  s t e p  795710                              ( at time 3.9781469E+02 )

 nodal point  x-disp     y-disp      z-disp      x-vel       y-vel       z-vel      x-accl      y-accl      z-accl      x-coor      y-coor      z-coor
    15383  8.30320E+00 3.05359E+02 1.93397E+02 1.41341E-02 4.15737E+00 2.60213E+00-1.89617E-02 3.43779E-02 4.73423E-02 1.39051E+02 5.40810E+02-7.61014E+02



 n o d a l   p r i n t   o u t   f o r   t i m e  s t e p  795710                              ( at time 3.9781469E+02 )

 nodal point  x-rot      y-rot       z-rot       x-rot vel   y-rot vel   z-rot vel   x-rot acc   y-rot acc   z-rot acc
    15383  1.44709E+00 3.00468E-01-9.52980E-01 9.96057E-03 2.67303E-03-1.81929E-02-9.13506E-04-9.74686E-05-4.01096E-04



 n o d a l   p r i n t   o u t   f o r   t i m e  s t e p  795910                              ( at time 3.9791468E+02 )

 nodal point  x-disp     y-disp      z-disp      x-vel       y-vel       z-vel      x-accl      y-accl      z-accl      x-coor      y-coor      z-coor
    15383  8.30452E+00 3.05774E+02 1.93656E+02 1.22962E-02 4.16088E+00 2.60630E+00-1.83836E-02 3.50942E-02 4.17716E-02 1.39072E+02 5.40745E+02-7.60930E+02



 n o d a l   p r i n t   o u t   f o r   t i m e  s t e p  795910                              ( at time 3.9791468E+02 )

 nodal point  x-rot      y-rot       z-rot       x-rot vel   y-rot vel   z-rot vel   x-rot acc   y-rot acc   z-rot acc
    15383  1.44809E+00 3.00736E-01-9.54804E-01 9.86867E-03 2.66389E-03-1.82350E-02-9.19198E-04-9.13734E-05-4.21564E-04



 n o d a l   p r i n t   o u t   f o r   t i m e  s t e p  796110                              ( at time 3.9801467E+02 )

 nodal point  x-disp     y-disp      z-disp      x-vel       y-vel       z-vel      x-accl      y-accl      z-accl      x-coor      y-coor      z-coor
    15383  8.30567E+00 3.06189E+02 1.93916E+02 1.04866E-02 4.16454E+00 2.60999E+00-1.80946E-02 3.65283E-02 3.68430E-02 1.39093E+02 5.40680E+02-7.60845E+02



 n o d a l   p r i n t   o u t   f o r   t i m e  s t e p  796110                              ( at time 3.9801467E+02 )

 nodal point  x-rot      y-rot       z-rot       x-rot vel   y-rot vel   z-rot vel   x-rot acc   y-rot acc   z-rot acc
    15383  1.44907E+00 3.01004E-01-9.56627E-01 9.77618E-03 2.65429E-03-1.82785E-02-9.24849E-04-9.59856E-05-4.34603E-04



 n o d a l   p r i n t   o u t   f o r   t i m e  s t e p  796310                              ( at time 3.9811466E+02 )

 nodal point  x-disp     y-disp      z-disp      x-vel       y-vel       z-vel      x-accl      y-accl      z-accl      x-coor      y-coor      z-coor
    15383  8.30662E+00 3.06604E+02 1.94178E+02 8.59809E-03 4.16806E+00 2.61303E+00-1.88902E-02 3.52039E-02 3.04535E-02 1.39114E+02 5.40613E+02-7.60761E+02



 n o d a l   p r i n t   o u t   f o r   t i m e  s t e p  796310                              ( at time 3.9811466E+02 )

 nodal point  x-rot      y-rot       z-rot       x-rot vel   y-rot vel   z-rot vel   x-rot acc   y-rot acc   z-rot acc
    15383  1.45004E+00 3.01267E-01-9.58457E-01 9.68282E-03 2.64194E-03-1.83206E-02-9.33804E-04-1.23558E-04-4.21042E-04



 n o d a l   p r i n t   o u t   f o r   t i m e  s t e p  796510                              ( at time 3.9821465E+02 )

 nodal point  x-disp     y-disp      z-disp      x-vel       y-vel       z-vel      x-accl      y-accl      z-accl      x-coor      y-coor      z-coor
    15383  8.30738E+00 3.07019E+02 1.94441E+02 6.84789E-03 4.17161E+00 2.61545E+00-1.75010E-02 3.54888E-02 2.41384E-02 1.39136E+02 5.40547E+02-7.60677E+02



 n o d a l   p r i n t   o u t   f o r   t i m e  s t e p  796510                              ( at time 3.9821465E+02 )

 nodal point  x-rot      y-rot       z-rot       x-rot vel   y-rot vel   z-rot vel   x-rot acc   y-rot acc   z-rot acc
    15383  1.45100E+00 3.01530E-01-9.60293E-01 9.59025E-03 2.62823E-03-1.83622E-02-9.25622E-04-1.37113E-04-4.16071E-04



 n o d a l   p r i n t   o u t   f o r   t i m e  s t e p  796710                              ( at time 3.9831464E+02 )

 nodal point  x-disp     y-disp      z-disp      x-vel       y-vel       z-vel      x-accl      y-accl      z-accl      x-coor      y-coor      z-coor
    15383  8.30797E+00 3.07434E+02 1.94703E+02 5.12044E-03 4.17515E+00 2.61734E+00-1.72787E-02 3.54710E-02 1.89541E-02 1.39157E+02 5.40480E+02-7.60593E+02



 n o d a l   p r i n t   o u t   f o r   t i m e  s t e p  796710                              ( at time 3.9831464E+02 )

 nodal point  x-rot      y-rot       z-rot       x-rot vel   y-rot vel   z-rot vel   x-rot acc   y-rot acc   z-rot acc
    15383  1.45196E+00 3.01792E-01-9.62129E-01 9.49951E-03 2.61442E-03-1.84033E-02-9.07674E-04-1.38102E-04-4.11428E-04



 n o d a l   p r i n t   o u t   f o r   t i m e  s t e p  796910                              ( at time 3.9841463E+02 )

 nodal point  x-disp     y-disp      z-disp      x-vel       y-vel       z-vel      x-accl      y-accl      z-accl      x-coor      y-coor      z-coor
    15383  8.30839E+00 3.07849E+02 1.94966E+02 3.31392E-03 4.17854E+00 2.61865E+00-1.80696E-02 3.39305E-02 1.31305E-02 1.39179E+02 5.40413E+02-7.60509E+02



 n o d a l   p r i n t   o u t   f o r   t i m e  s t e p  796910                              ( at time 3.9841463E+02 )

 nodal point  x-rot      y-rot       z-rot       x-rot vel   y-rot vel   z-rot vel   x-rot acc   y-rot acc   z-rot acc
    15383  1.45291E+00 3.02054E-01-9.63971E-01 9.41228E-03 2.59842E-03-1.84402E-02-8.72499E-04-1.60008E-04-3.68558E-04



 n o d a l   p r i n t   o u t   f o r   t i m e  s t e p  797110                              ( at time 3.9851462E+02 )

 nodal point  x-disp     y-disp      z-disp      x-vel       y-vel       z-vel      x-accl      y-accl      z-accl      x-coor      y-coor      z-coor
    15383  8.30863E+00 3.08265E+02 1.95228E+02 1.53012E-03 4.18172E+00 2.61943E+00-1.78369E-02 3.18031E-02 7.76482E-03 1.39200E+02 5.40345E+02-7.60424E+02



 n o d a l   p r i n t   o u t   f o r   t i m e  s t e p  797110                              ( at time 3.9851462E+02 )

 nodal point  x-rot      y-rot       z-rot       x-rot vel   y-rot vel   z-rot vel   x-rot acc   y-rot acc   z-rot acc
    15383  1.45384E+00 3.02312E-01-9.65819E-01 9.33113E-03 2.58025E-03-1.84743E-02-8.11477E-04-1.81734E-04-3.40750E-04



 n o d a l   p r i n t   o u t   f o r   t i m e  s t e p  797311                              ( at time 3.9861511E+02 )

 nodal point  x-disp     y-disp      z-disp      x-vel       y-vel       z-vel      x-accl      y-accl      z-accl      x-coor      y-coor      z-coor
    15383  8.30869E+00 3.08688E+02 1.95492E+02-1.64447E-04 4.18463E+00 2.61979E+00-1.68623E-02 2.88870E-02 3.59902E-03 1.39222E+02 5.40277E+02-7.60340E+02



 n o d a l   p r i n t   o u t   f o r   t i m e  s t e p  797311                              ( at time 3.9861511E+02 )

 nodal point  x-rot      y-rot       z-rot       x-rot vel   y-rot vel   z-rot vel   x-rot acc   y-rot acc   z-rot acc
    15383  1.45477E+00 3.02570E-01-9.67676E-01 9.25659E-03 2.56306E-03-1.85046E-02-7.41726E-04-1.71067E-04-3.02340E-04



 n o d a l   p r i n t   o u t   f o r   t i m e  s t e p  797511                              ( at time 3.9871510E+02 )

 nodal point  x-disp     y-disp      z-disp      x-vel       y-vel       z-vel      x-accl      y-accl      z-accl      x-coor      y-coor      z-coor
    15383  8.30859E+00 3.09109E+02 1.95754E+02-1.90252E-03 4.18723E+00 2.61955E+00-1.73850E-02 2.60417E-02-2.38715E-03 1.39244E+02 5.40209E+02-7.60256E+02



 n o d a l   p r i n t   o u t   f o r   t i m e  s t e p  797511                              ( at time 3.9871510E+02 )

 nodal point  x-rot      y-rot       z-rot       x-rot vel   y-rot vel   z-rot vel   x-rot acc   y-rot acc   z-rot acc
    15383  1.45570E+00 3.02826E-01-9.69524E-01 9.18932E-03 2.54263E-03-1.85333E-02-6.72859E-04-2.04340E-04-2.86843E-04



 n o d a l   p r i n t   o u t   f o r   t i m e  s t e p  797711                              ( at time 3.9881509E+02 )

 nodal point  x-disp     y-disp      z-disp      x-vel       y-vel       z-vel      x-accl      y-accl      z-accl      x-coor      y-coor      z-coor
    15383  8.30831E+00 3.09530E+02 1.96017E+02-3.69273E-03 4.18953E+00 2.61892E+00-1.79009E-02 2.30251E-02-6.31294E-03 1.39266E+02 5.40140E+02-7.60172E+02



 n o d a l   p r i n t   o u t   f o r   t i m e  s t e p  797711                              ( at time 3.9881509E+02 )

 nodal point  x-rot      y-rot       z-rot       x-rot vel   y-rot vel   z-rot vel   x-rot acc   y-rot acc   z-rot acc
    15383  1.45661E+00 3.03079E-01-9.71380E-01 9.13025E-03 2.52226E-03-1.85584E-02-5.90702E-04-2.03649E-04-2.50510E-04



 n o d a l   p r i n t   o u t   f o r   t i m e  s t e p  797911                              ( at time 3.9891508E+02 )

 nodal point  x-disp     y-disp      z-disp      x-vel       y-vel       z-vel      x-accl      y-accl      z-accl      x-coor      y-coor      z-coor
    15383  8.30786E+00 3.09951E+02 1.96279E+02-5.28121E-03 4.19139E+00 2.61796E+00-1.58887E-02 1.85773E-02-9.59631E-03 1.39288E+02 5.40071E+02-7.60087E+02



 n o d a l   p r i n t   o u t   f o r   t i m e  s t e p  797911                              ( at time 3.9891508E+02 )

 nodal point  x-rot      y-rot       z-rot       x-rot vel   y-rot vel   z-rot vel   x-rot acc   y-rot acc   z-rot acc
    15383  1.45752E+00 3.03329E-01-9.73240E-01 9.08033E-03 2.50284E-03-1.85817E-02-4.99255E-04-1.94240E-04-2.32850E-04



 n o d a l   p r i n t   o u t   f o r   t i m e  s t e p  798111                              ( at time 3.9901507E+02 )

 nodal point  x-disp     y-disp      z-disp      x-vel       y-vel       z-vel      x-accl      y-accl      z-accl      x-coor      y-coor      z-coor
    15383  8.30727E+00 3.10373E+02 1.96542E+02-6.86725E-03 4.19295E+00 2.61662E+00-1.58595E-02 1.55630E-02-1.34365E-02 1.39310E+02 5.40003E+02-7.60003E+02



 n o d a l   p r i n t   o u t   f o r   t i m e  s t e p  798111                              ( at time 3.9901507E+02 )

 nodal point  x-rot      y-rot       z-rot       x-rot vel   y-rot vel   z-rot vel   x-rot acc   y-rot acc   z-rot acc
    15383  1.45843E+00 3.03580E-01-9.75100E-01 9.03890E-03 2.48287E-03-1.86021E-02-4.14320E-04-1.99708E-04-2.04096E-04



 n o d a l   p r i n t   o u t   f o r   t i m e  s t e p  798311                              ( at time 3.9911506E+02 )

 nodal point  x-disp     y-disp      z-disp      x-vel       y-vel       z-vel      x-accl      y-accl      z-accl      x-coor      y-coor      z-coor
    15383  8.30650E+00 3.10794E+02 1.96804E+02-8.33970E-03 4.19411E+00 2.61488E+00-1.47280E-02 1.15995E-02-1.73730E-02 1.39332E+02 5.39934E+02-7.59918E+02



 n o d a l   p r i n t   o u t   f o r   t i m e  s t e p  798311                              ( at time 3.9911506E+02 )

 nodal point  x-rot      y-rot       z-rot       x-rot vel   y-rot vel   z-rot vel   x-rot acc   y-rot acc   z-rot acc
    15383  1.45933E+00 3.03827E-01-9.76959E-01 9.00715E-03 2.46333E-03-1.86191E-02-3.17565E-04-1.95456E-04-1.70679E-04



 n o d a l   p r i n t   o u t   f o r   t i m e  s t e p  798511                              ( at time 3.9921505E+02 )

 nodal point  x-disp     y-disp      z-disp      x-vel       y-vel       z-vel      x-accl      y-accl      z-accl      x-coor      y-coor      z-coor
    15383  8.30558E+00 3.11215E+02 1.97067E+02-9.64495E-03 4.19477E+00 2.61279E+00-1.30517E-02 6.64194E-03-2.08818E-02 1.39354E+02 5.39865E+02-7.59833E+02



 n o d a l   p r i n t   o u t   f o r   t i m e  s t e p  798511                              ( at time 3.9921505E+02 )

 nodal point  x-rot      y-rot       z-rot       x-rot vel   y-rot vel   z-rot vel   x-rot acc   y-rot acc   z-rot acc
    15383  1.46024E+00 3.04071E-01-9.78819E-01 8.98476E-03 2.44638E-03-1.86318E-02-2.23895E-04-1.69453E-04-1.26820E-04



 n o d a l   p r i n t   o u t   f o r   t i m e  s t e p  798711                              ( at time 3.9931504E+02 )

 nodal point  x-disp     y-disp      z-disp      x-vel       y-vel       z-vel      x-accl      y-accl      z-accl      x-coor      y-coor      z-coor
    15383  8.30457E+00 3.11636E+02 1.97329E+02-1.08234E-02 4.19508E+00 2.61034E+00-1.17877E-02 3.07158E-03-2.45750E-02 1.39376E+02 5.39796E+02-7.59748E+02



 n o d a l   p r i n t   o u t   f o r   t i m e  s t e p  798711                              ( at time 3.9931504E+02 )

 nodal point  x-rot      y-rot       z-rot       x-rot vel   y-rot vel   z-rot vel   x-rot acc   y-rot acc   z-rot acc
    15383  1.46114E+00 3.04315E-01-9.80679E-01 8.97236E-03 2.43044E-03-1.86406E-02-1.24027E-04-1.59437E-04-8.83855E-05



 n o d a l   p r i n t   o u t   f o r   t i m e  s t e p  798911                              ( at time 3.9941503E+02 )

 nodal point  x-disp     y-disp      z-disp      x-vel       y-vel       z-vel      x-accl      y-accl      z-accl      x-coor      y-coor      z-coor
    15383  8.30342E+00 3.12057E+02 1.97589E+02-1.18882E-02 4.19502E+00 2.60760E+00-1.06468E-02-5.43561E-04-2.73640E-02 1.39399E+02 5.39727E+02-7.59663E+02



 n o d a l   p r i n t   o u t   f o r   t i m e  s t e p  798911                              ( at time 3.9941503E+02 )

 nodal point  x-rot      y-rot       z-rot       x-rot vel   y-rot vel   z-rot vel   x-rot acc   y-rot acc   z-rot acc
    15383  1.46205E+00 3.04560E-01-9.82538E-01 8.97003E-03 2.41625E-03-1.86466E-02-2.32723E-05-1.41951E-04-5.98618E-05



 n o d a l   p r i n t   o u t   f o r   t i m e  s t e p  799111                              ( at time 3.9951502E+02 )

 nodal point  x-disp     y-disp      z-disp      x-vel       y-vel       z-vel      x-accl      y-accl      z-accl      x-coor      y-coor      z-coor
    15383  8.30221E+00 3.12478E+02 1.97849E+02-1.26494E-02 4.19446E+00 2.60461E+00-7.61428E-03-5.66144E-03-2.98835E-02 1.39421E+02 5.39659E+02-7.59578E+02



 n o d a l   p r i n t   o u t   f o r   t i m e  s t e p  799111                              ( at time 3.9951502E+02 )

 nodal point  x-rot      y-rot       z-rot       x-rot vel   y-rot vel   z-rot vel   x-rot acc   y-rot acc   z-rot acc
    15383  1.46296E+00 3.04799E-01-9.84398E-01 8.97759E-03 2.40571E-03-1.86490E-02 7.56512E-05-1.05442E-04-2.34937E-05



 n o d a l   p r i n t   o u t   f o r   t i m e  s t e p  799311                              ( at time 3.9961501E+02 )

 nodal point  x-disp     y-disp      z-disp      x-vel       y-vel       z-vel      x-accl      y-accl      z-accl      x-coor      y-coor      z-coor
    15383  8.30087E+00 3.12899E+02 1.98108E+02-1.32642E-02 4.19344E+00 2.60142E+00-6.14726E-03-1.01894E-02-3.19485E-02 1.39443E+02 5.39591E+02-7.59492E+02



 n o d a l   p r i n t   o u t   f o r   t i m e  s t e p  799311                              ( at time 3.9961501E+02 )

 nodal point  x-rot      y-rot       z-rot       x-rot vel   y-rot vel   z-rot vel   x-rot acc   y-rot acc   z-rot acc
    15383  1.46386E+00 3.05038E-01-9.86258E-01 8.99462E-03 2.39852E-03-1.86490E-02 1.70217E-04-7.18751E-05 7.45013E-08



 n o d a l   p r i n t   o u t   f o r   t i m e  s t e p  799511                              ( at time 3.9971500E+02 )

 nodal point  x-disp     y-disp      z-disp      x-vel       y-vel       z-vel      x-accl      y-accl      z-accl      x-coor      y-coor      z-coor
    15383  8.29953E+00 3.13321E+02 1.98368E+02-1.37406E-02 4.19213E+00 2.59828E+00-4.76512E-03-1.30828E-02-3.14002E-02 1.39465E+02 5.39522E+02-7.59407E+02



 n o d a l   p r i n t   o u t   f o r   t i m e  s t e p  799511                              ( at time 3.9971500E+02 )

 nodal point  x-rot      y-rot       z-rot       x-rot vel   y-rot vel   z-rot vel   x-rot acc   y-rot acc   z-rot acc
    15383  1.46477E+00 3.05276E-01-9.88117E-01 9.02094E-03 2.39437E-03-1.86476E-02 2.63256E-04-4.15169E-05 1.34330E-05



 n o d a l   p r i n t   o u t   f o r   t i m e  s t e p  799711                              ( at time 3.9981499E+02 )

 nodal point  x-disp     y-disp      z-disp      x-vel       y-vel       z-vel      x-accl      y-accl      z-accl      x-coor      y-coor      z-coor
    15383  8.29820E+00 3.13742E+02 1.98627E+02-1.39250E-02 4.19044E+00 2.59512E+00-1.84497E-03-1.69319E-02-3.15624E-02 1.39487E+02 5.39454E+02-7.59321E+02



 n o d a l   p r i n t   o u t   f o r   t i m e  s t e p  799711                              ( at time 3.9981499E+02 )

 nodal point  x-rot      y-rot       z-rot       x-rot vel   y-rot vel   z-rot vel   x-rot acc   y-rot acc   z-rot acc
    15383  1.46567E+00 3.05515E-01-9.89977E-01 9.05417E-03 2.39416E-03-1.86439E-02 3.32433E-04-2.10297E-06 3.69825E-05



 n o d a l   p r i n t   o u t   f o r   t i m e  s t e p  799911                              ( at time 3.9991498E+02 )

 nodal point  x-disp     y-disp      z-disp      x-vel       y-vel       z-vel      x-accl      y-accl      z-accl      x-coor      y-coor      z-coor
    15383  8.29686E+00 3.14163E+02 1.98886E+02-1.38794E-02 4.18852E+00 2.59201E+00 4.56683E-04-1.91391E-02-3.11689E-02 1.39509E+02 5.39387E+02-7.59235E+02



 n o d a l   p r i n t   o u t   f o r   t i m e  s t e p  799911                              ( at time 3.9991498E+02 )

 nodal point  x-rot      y-rot       z-rot       x-rot vel   y-rot vel   z-rot vel   x-rot acc   y-rot acc   z-rot acc
    15383  1.46658E+00 3.05753E-01-9.91837E-01 9.09363E-03 2.39663E-03-1.86388E-02 3.94615E-04 2.47181E-05 5.16666E-05
