 LSTC 50th% Full_FE H-III Dummy (Beta Version, February 17, 2019)        
                    ls-dyna smp s R16 R16.0_619_d222963 date 03/18/2025

{BEGIN LEGEND}
 Entity #        Title
    22626                                                                                     
{END LEGEND}




 n o d a l   p r i n t   o u t   f o r   t i m e  s t e p       1                              ( at time 0.0000000E+00 )

 nodal point  x-disp     y-disp      z-disp      x-vel       y-vel       z-vel      x-accl      y-accl      z-accl      x-coor      y-coor      z-coor
    22626  0.00000E+00 0.00000E+00 0.00000E+00 0.00000E+00 0.00000E+00 0.00000E+00 0.00000E+00 0.00000E+00 0.00000E+00 4.65938E+00-2.81908E+01-4.49817E+01



 n o d a l   p r i n t   o u t   f o r   t i m e  s t e p       1                              ( at time 0.0000000E+00 )

 nodal point  x-rot      y-rot       z-rot       x-rot vel   y-rot vel   z-rot vel   x-rot acc   y-rot acc   z-rot acc
    22626  0.00000E+00 0.00000E+00 0.00000E+00 0.00000E+00 0.00000E+00 0.00000E+00 0.00000E+00 0.00000E+00 0.00000E+00



 n o d a l   p r i n t   o u t   f o r   t i m e  s t e p     201                              ( at time 9.9989993E-02 )

 nodal point  x-disp     y-disp      z-disp      x-vel       y-vel       z-vel      x-accl      y-accl      z-accl      x-coor      y-coor      z-coor
    22626  2.73575E-07 1.73669E-06-5.34278E-05 4.19752E-05 2.55596E-04-1.46819E-03 4.19794E-04 2.55621E-03-1.46834E-02 4.65938E+00-2.81908E+01-4.49818E+01



 n o d a l   p r i n t   o u t   f o r   t i m e  s t e p     201                              ( at time 9.9989993E-02 )

 nodal point  x-rot      y-rot       z-rot       x-rot vel   y-rot vel   z-rot vel   x-rot acc   y-rot acc   z-rot acc
    22626 -5.98981E-08-8.38467E-09-5.45921E-09-5.86955E-06-9.69951E-07-9.27110E-07-5.87014E-05-9.70048E-06-9.27203E-06



 n o d a l   p r i n t   o u t   f o r   t i m e  s t e p     401                              ( at time 1.9997999E-01 )

 nodal point  x-disp     y-disp      z-disp      x-vel       y-vel       z-vel      x-accl      y-accl      z-accl      x-coor      y-coor      z-coor
    22626  1.73144E-05 3.61746E-04-6.67603E-04 3.02922E-05 7.81086E-03-1.21540E-02-1.16842E-04 7.55602E-02-1.06868E-01 4.65939E+00-2.81905E+01-4.49824E+01



 n o d a l   p r i n t   o u t   f o r   t i m e  s t e p     401                              ( at time 1.9997999E-01 )

 nodal point  x-rot      y-rot       z-rot       x-rot vel   y-rot vel   z-rot vel   x-rot acc   y-rot acc   z-rot acc
    22626 -2.82026E-06-3.37249E-07-3.34666E-07-3.94095E-05-1.76165E-06-2.28661E-06-3.35433E-04-7.91780E-06-1.35963E-05



 n o d a l   p r i n t   o u t   f o r   t i m e  s t e p     601                              ( at time 2.9996998E-01 )

 nodal point  x-disp     y-disp      z-disp      x-vel       y-vel       z-vel      x-accl      y-accl      z-accl      x-coor      y-coor      z-coor
    22626  2.73888E-05 1.24005E-03-2.33844E-03 4.22197E-04 8.44955E-03-1.92547E-02 3.91944E-03 6.38755E-03-7.10144E-02 4.65940E+00-2.81896E+01-4.49841E+01



 n o d a l   p r i n t   o u t   f o r   t i m e  s t e p     601                              ( at time 2.9996998E-01 )

 nodal point  x-rot      y-rot       z-rot       x-rot vel   y-rot vel   z-rot vel   x-rot acc   y-rot acc   z-rot acc
    22626 -5.38444E-06-3.91002E-07-6.42487E-07-1.54231E-05-5.47171E-06-6.66455E-06 2.39888E-04-3.71043E-05-4.37838E-05



 n o d a l   p r i n t   o u t   f o r   t i m e  s t e p     801                              ( at time 3.9995997E-01 )

 nodal point  x-disp     y-disp      z-disp      x-vel       y-vel       z-vel      x-accl      y-accl      z-accl      x-coor      y-coor      z-coor
    22626  2.60372E-05 2.16244E-03-4.28289E-03-3.14011E-04 1.07374E-02-2.10871E-02-7.36282E-03 2.28811E-02-1.83264E-02 4.65940E+00-2.81887E+01-4.49860E+01



 n o d a l   p r i n t   o u t   f o r   t i m e  s t e p     801                              ( at time 3.9995997E-01 )

 nodal point  x-rot      y-rot       z-rot       x-rot vel   y-rot vel   z-rot vel   x-rot acc   y-rot acc   z-rot acc
    22626 -7.61675E-06-1.25003E-06-9.80977E-07-4.49682E-05-6.20794E-06-1.49237E-06-2.95480E-04-7.36305E-06 5.17270E-05



 n o d a l   p r i n t   o u t   f o r   t i m e  s t e p    1001                              ( at time 4.9994997E-01 )

 nodal point  x-disp     y-disp      z-disp      x-vel       y-vel       z-vel      x-accl      y-accl      z-accl      x-coor      y-coor      z-coor
    22626  3.65451E-06 3.43654E-03-6.74477E-03-2.39974E-04 1.41521E-02-2.87068E-02 7.40444E-04 3.41502E-02-7.62043E-02 4.65938E+00-2.81874E+01-4.49885E+01



 n o d a l   p r i n t   o u t   f o r   t i m e  s t e p    1001                              ( at time 4.9994997E-01 )

 nodal point  x-rot      y-rot       z-rot       x-rot vel   y-rot vel   z-rot vel   x-rot acc   y-rot acc   z-rot acc
    22626 -1.35615E-05-1.16528E-06-9.48948E-07-8.41484E-05 3.22453E-06 4.11881E-06-3.91842E-04 9.43342E-05 5.61174E-05



 n o d a l   p r i n t   o u t   f o r   t i m e  s t e p    1201                              ( at time 5.9993996E-01 )

 nodal point  x-disp     y-disp      z-disp      x-vel       y-vel       z-vel      x-accl      y-accl      z-accl      x-coor      y-coor      z-coor
    22626 -8.48825E-07 5.01226E-03-9.71614E-03 4.45535E-05 1.67024E-02-3.09905E-02 2.84556E-03 2.55052E-02-2.28387E-02 4.65937E+00-2.81858E+01-4.49914E+01



 n o d a l   p r i n t   o u t   f o r   t i m e  s t e p    1201                              ( at time 5.9993996E-01 )

 nodal point  x-rot      y-rot       z-rot       x-rot vel   y-rot vel   z-rot vel   x-rot acc   y-rot acc   z-rot acc
    22626 -2.02868E-05-8.87026E-07-9.58115E-07-5.90296E-05 3.87985E-06-1.99283E-06 2.51213E-04 6.55380E-06-6.11225E-05



 n o d a l   p r i n t   o u t   f o r   t i m e  s t e p    1401                              ( at time 6.9992995E-01 )

 nodal point  x-disp     y-disp      z-disp      x-vel       y-vel       z-vel      x-accl      y-accl      z-accl      x-coor      y-coor      z-coor
    22626 -5.09969E-05 6.85042E-03-1.31710E-02-4.89114E-04 1.96595E-02-3.89680E-02-5.33721E-03 2.95746E-02-7.97832E-02 4.65932E+00-2.81840E+01-4.49949E+01



 n o d a l   p r i n t   o u t   f o r   t i m e  s t e p    1401                              ( at time 6.9992995E-01 )

 nodal point  x-rot      y-rot       z-rot       x-rot vel   y-rot vel   z-rot vel   x-rot acc   y-rot acc   z-rot acc
    22626 -2.62097E-05-9.01286E-07-6.32869E-07-7.09277E-05 2.88948E-07 3.77699E-06-1.18993E-04-3.59126E-05 5.77040E-05



 n o d a l   p r i n t   o u t   f o r   t i m e  s t e p    1601                              ( at time 7.9991994E-01 )

 nodal point  x-disp     y-disp      z-disp      x-vel       y-vel       z-vel      x-accl      y-accl      z-accl      x-coor      y-coor      z-coor
    22626 -8.02848E-05 8.98679E-03-1.74643E-02-4.99648E-04 2.21656E-02-4.51192E-02-1.05351E-04 2.50633E-02-6.15179E-02 4.65929E+00-2.81818E+01-4.49992E+01



 n o d a l   p r i n t   o u t   f o r   t i m e  s t e p    1601                              ( at time 7.9991994E-01 )

 nodal point  x-rot      y-rot       z-rot       x-rot vel   y-rot vel   z-rot vel   x-rot acc   y-rot acc   z-rot acc
    22626 -3.43990E-05-8.78151E-07-5.14774E-07-9.18669E-05-4.77219E-06 1.58179E-06-2.09412E-04-5.06165E-05-2.19541E-05



 n o d a l   p r i n t   o u t   f o r   t i m e  s t e p    1801                              ( at time 8.9990994E-01 )

 nodal point  x-disp     y-disp      z-disp      x-vel       y-vel       z-vel      x-accl      y-accl      z-accl      x-coor      y-coor      z-coor
    22626 -1.16839E-04 1.12543E-02-2.19906E-02-2.88558E-04 2.40462E-02-4.55860E-02 2.11111E-03 1.88073E-02-4.66930E-03 4.65926E+00-2.81796E+01-4.50037E+01



 n o d a l   p r i n t   o u t   f o r   t i m e  s t e p    1801                              ( at time 8.9990994E-01 )

 nodal point  x-rot      y-rot       z-rot       x-rot vel   y-rot vel   z-rot vel   x-rot acc   y-rot acc   z-rot acc
    22626 -4.28168E-05-9.57718E-07-5.01916E-07-8.25746E-05 1.90491E-06-6.74738E-07 9.29318E-05 6.67777E-05-2.25676E-05



 n o d a l   p r i n t   o u t   f o r   t i m e  s t e p    2001                              ( at time 9.9989993E-01 )

 nodal point  x-disp     y-disp      z-disp      x-vel       y-vel       z-vel      x-accl      y-accl      z-accl      x-coor      y-coor      z-coor
    22626 -1.52021E-04 1.37912E-02-2.67304E-02-3.16465E-05 2.64965E-02-5.00342E-02 2.56937E-03 2.45053E-02-4.44859E-02 4.65922E+00-2.81770E+01-4.50084E+01



 n o d a l   p r i n t   o u t   f o r   t i m e  s t e p    2001                              ( at time 9.9989993E-01 )

 nodal point  x-rot      y-rot       z-rot       x-rot vel   y-rot vel   z-rot vel   x-rot acc   y-rot acc   z-rot acc
    22626 -5.18499E-05-9.08083E-07-4.37813E-07-1.06230E-04 1.22229E-06-3.07908E-06-2.36580E-04-6.82686E-06-2.40458E-05



 n o d a l   p r i n t   o u t   f o r   t i m e  s t e p    2201                              ( at time 1.0998899E+00 )

 nodal point  x-disp     y-disp      z-disp      x-vel       y-vel       z-vel      x-accl      y-accl      z-accl      x-coor      y-coor      z-coor
    22626 -1.59796E-04 1.65322E-02-3.20559E-02-3.47610E-04 2.88835E-02-5.60782E-02-3.15995E-03 2.38734E-02-6.04465E-02 4.65921E+00-2.81743E+01-4.50138E+01



 n o d a l   p r i n t   o u t   f o r   t i m e  s t e p    2201                              ( at time 1.0998899E+00 )

 nodal point  x-rot      y-rot       z-rot       x-rot vel   y-rot vel   z-rot vel   x-rot acc   y-rot acc   z-rot acc
    22626 -6.29462E-05-1.00538E-06-7.49829E-07-1.03631E-04-7.53860E-06-2.09106E-06 2.59923E-05-8.76177E-05 9.88115E-06



 n o d a l   p r i n t   o u t   f o r   t i m e  s t e p    2401                              ( at time 1.1998799E+00 )

 nodal point  x-disp     y-disp      z-disp      x-vel       y-vel       z-vel      x-accl      y-accl      z-accl      x-coor      y-coor      z-coor
    22626 -1.89811E-04 1.94752E-02-3.79327E-02-1.99394E-04 3.02253E-02-6.12078E-02 1.48231E-03 1.34188E-02-5.13013E-02 4.65919E+00-2.81714E+01-4.50197E+01



 n o d a l   p r i n t   o u t   f o r   t i m e  s t e p    2401                              ( at time 1.1998799E+00 )

 nodal point  x-rot      y-rot       z-rot       x-rot vel   y-rot vel   z-rot vel   x-rot acc   y-rot acc   z-rot acc
    22626 -7.29504E-05-1.61426E-06-9.90811E-07-1.01289E-04-7.17444E-06-2.92588E-06 2.34239E-05 3.64201E-06-8.34902E-06



 n o d a l   p r i n t   o u t   f o r   t i m e  s t e p    2601                              ( at time 1.2998699E+00 )

 nodal point  x-disp     y-disp      z-disp      x-vel       y-vel       z-vel      x-accl      y-accl      z-accl      x-coor      y-coor      z-coor
    22626 -2.23853E-04 2.26250E-02-4.42079E-02-2.42001E-04 3.26017E-02-6.40526E-02-4.26112E-04 2.37669E-02-2.84500E-02 4.65915E+00-2.81682E+01-4.50259E+01



 n o d a l   p r i n t   o u t   f o r   t i m e  s t e p    2601                              ( at time 1.2998699E+00 )

 nodal point  x-rot      y-rot       z-rot       x-rot vel   y-rot vel   z-rot vel   x-rot acc   y-rot acc   z-rot acc
    22626 -8.39946E-05-2.17017E-06-1.24554E-06-1.29475E-04 5.05789E-09-1.47145E-06-2.81887E-04 7.18021E-05 1.45457E-05



 n o d a l   p r i n t   o u t   f o r   t i m e  s t e p    2801                              ( at time 1.3998599E+00 )

 nodal point  x-disp     y-disp      z-disp      x-vel       y-vel       z-vel      x-accl      y-accl      z-accl      x-coor      y-coor      z-coor
    22626 -2.51460E-04 2.59924E-02-5.07121E-02-4.52995E-04 3.45147E-02-6.66733E-02-2.11015E-03 1.91315E-02-2.62104E-02 4.65912E+00-2.81648E+01-4.50324E+01



 n o d a l   p r i n t   o u t   f o r   t i m e  s t e p    2801                              ( at time 1.3998599E+00 )

 nodal point  x-rot      y-rot       z-rot       x-rot vel   y-rot vel   z-rot vel   x-rot acc   y-rot acc   z-rot acc
    22626 -9.73969E-05-2.01181E-06-1.34482E-06-1.36852E-04-2.11746E-07 1.71109E-06-7.37747E-05-2.16826E-06 3.18286E-05



 n o d a l   p r i n t   o u t   f o r   t i m e  s t e p    3001                              ( at time 1.4998499E+00 )

 nodal point  x-disp     y-disp      z-disp      x-vel       y-vel       z-vel      x-accl      y-accl      z-accl      x-coor      y-coor      z-coor
    22626 -2.96333E-04 2.95912E-02-5.77242E-02-4.47252E-04 3.72840E-02-7.39855E-02 5.74389E-05 2.76956E-02-7.31285E-02 4.65908E+00-2.81612E+01-4.50394E+01



 n o d a l   p r i n t   o u t   f o r   t i m e  s t e p    3001                              ( at time 1.4998499E+00 )

 nodal point  x-rot      y-rot       z-rot       x-rot vel   y-rot vel   z-rot vel   x-rot acc   y-rot acc   z-rot acc
    22626 -1.10705E-04-2.03122E-06-1.27153E-06-1.28637E-04-1.05197E-06-1.74391E-06 8.21577E-05-8.40311E-06-3.45534E-05



 n o d a l   p r i n t   o u t   f o r   t i m e  s t e p    3201                              ( at time 1.5998399E+00 )

 nodal point  x-disp     y-disp      z-disp      x-vel       y-vel       z-vel      x-accl      y-accl      z-accl      x-coor      y-coor      z-coor
    22626 -3.60085E-04 3.34892E-02-6.54465E-02-5.83838E-04 4.05435E-02-7.97055E-02-1.36600E-03 3.25984E-02-5.72061E-02 4.65901E+00-2.81573E+01-4.50472E+01



 n o d a l   p r i n t   o u t   f o r   t i m e  s t e p    3201                              ( at time 1.5998399E+00 )

 nodal point  x-rot      y-rot       z-rot       x-rot vel   y-rot vel   z-rot vel   x-rot acc   y-rot acc   z-rot acc
    22626 -1.23310E-04-2.14862E-06-1.09847E-06-1.34729E-04-2.94354E-06 3.12464E-06-6.09264E-05-1.89176E-05 4.86904E-05



 n o d a l   p r i n t   o u t   f o r   t i m e  s t e p    3401                              ( at time 1.6998299E+00 )

 nodal point  x-disp     y-disp      z-disp      x-vel       y-vel       z-vel      x-accl      y-accl      z-accl      x-coor      y-coor      z-coor
    22626 -4.21667E-04 3.76417E-02-7.35823E-02-7.29651E-04 4.22392E-02-8.25938E-02-1.45828E-03 1.69587E-02-2.88863E-02 4.65895E+00-2.81532E+01-4.50553E+01



 n o d a l   p r i n t   o u t   f o r   t i m e  s t e p    3401                              ( at time 1.6998299E+00 )

 nodal point  x-rot      y-rot       z-rot       x-rot vel   y-rot vel   z-rot vel   x-rot acc   y-rot acc   z-rot acc
    22626 -1.37609E-04-2.15262E-06-9.09061E-07-1.47618E-04 1.59285E-06 3.97284E-06-1.28900E-04 4.53685E-05 8.48279E-06



 n o d a l   p r i n t   o u t   f o r   t i m e  s t e p    3601                              ( at time 1.7998199E+00 )

 nodal point  x-disp     y-disp      z-disp      x-vel       y-vel       z-vel      x-accl      y-accl      z-accl      x-coor      y-coor      z-coor
    22626 -4.84826E-04 4.19001E-02-8.19598E-02-5.07335E-04 4.32832E-02-8.48715E-02 2.22338E-03 1.04410E-02-2.27792E-02 4.65889E+00-2.81489E+01-4.50637E+01



 n o d a l   p r i n t   o u t   f o r   t i m e  s t e p    3601                              ( at time 1.7998199E+00 )

 nodal point  x-rot      y-rot       z-rot       x-rot vel   y-rot vel   z-rot vel   x-rot acc   y-rot acc   z-rot acc
    22626 -1.52820E-04-2.06406E-06-7.77796E-07-1.49833E-04 1.41772E-06-1.45216E-06-2.21523E-05-1.75147E-06-5.42554E-05



 n o d a l   p r i n t   o u t   f o r   t i m e  s t e p    3801                              ( at time 1.8998099E+00 )

 nodal point  x-disp     y-disp      z-disp      x-vel       y-vel       z-vel      x-accl      y-accl      z-accl      x-coor      y-coor      z-coor
    22626 -5.44099E-04 4.63775E-02-9.06359E-02-5.22685E-04 4.60798E-02-8.88724E-02-1.53514E-04 2.79693E-02-4.00127E-02 4.65883E+00-2.81445E+01-4.50724E+01



 n o d a l   p r i n t   o u t   f o r   t i m e  s t e p    3801                              ( at time 1.8998099E+00 )

 nodal point  x-rot      y-rot       z-rot       x-rot vel   y-rot vel   z-rot vel   x-rot acc   y-rot acc   z-rot acc
    22626 -1.67675E-04-1.85480E-06-6.49163E-07-1.49813E-04-1.45306E-06-4.80457E-07 1.95161E-07-2.87107E-05 9.71795E-06



 n o d a l   p r i n t   o u t   f o r   t i m e  s t e p    4001                              ( at time 1.9997999E+00 )

 nodal point  x-disp     y-disp      z-disp      x-vel       y-vel       z-vel      x-accl      y-accl      z-accl      x-coor      y-coor      z-coor
    22626 -5.94969E-04 5.10272E-02-9.97454E-02-5.47727E-04 4.71674E-02-9.31105E-02-2.50446E-04 1.08765E-02-4.23856E-02 4.65878E+00-2.81398E+01-4.50815E+01



 n o d a l   p r i n t   o u t   f o r   t i m e  s t e p    4001                              ( at time 1.9997999E+00 )

 nodal point  x-rot      y-rot       z-rot       x-rot vel   y-rot vel   z-rot vel   x-rot acc   y-rot acc   z-rot acc
    22626 -1.82765E-04-2.08952E-06-6.98556E-07-1.56051E-04-4.61485E-06-1.43392E-07-6.23823E-05-3.16211E-05 3.37098E-06



 n o d a l   p r i n t   o u t   f o r   t i m e  s t e p    4201                              ( at time 2.0997899E+00 )

 nodal point  x-disp     y-disp      z-disp      x-vel       y-vel       z-vel      x-accl      y-accl      z-accl      x-coor      y-coor      z-coor
    22626 -6.49025E-04 5.57837E-02-1.09162E-01-5.56169E-04 4.81909E-02-9.52995E-02-8.44270E-05 1.02359E-02-2.18918E-02 4.65873E+00-2.81350E+01-4.50909E+01



 n o d a l   p r i n t   o u t   f o r   t i m e  s t e p    4201                              ( at time 2.0997899E+00 )

 nodal point  x-rot      y-rot       z-rot       x-rot vel   y-rot vel   z-rot vel   x-rot acc   y-rot acc   z-rot acc
    22626 -1.97945E-04-2.48029E-06-8.61555E-07-1.50176E-04-1.62711E-06 2.03467E-06 5.87502E-05 2.98805E-05 2.17828E-05



 n o d a l   p r i n t   o u t   f o r   t i m e  s t e p    4401                              ( at time 2.1997798E+00 )

 nodal point  x-disp     y-disp      z-disp      x-vel       y-vel       z-vel      x-accl      y-accl      z-accl      x-coor      y-coor      z-coor
    22626 -7.07782E-04 6.06673E-02-1.18761E-01-4.95732E-04 4.91608E-02-9.67335E-02 6.04434E-04 9.69996E-03-1.43414E-02 4.65867E+00-2.81302E+01-4.51005E+01



 n o d a l   p r i n t   o u t   f o r   t i m e  s t e p    4401                              ( at time 2.1997798E+00 )

 nodal point  x-rot      y-rot       z-rot       x-rot vel   y-rot vel   z-rot vel   x-rot acc   y-rot acc   z-rot acc
    22626 -2.13318E-04-2.58743E-06-8.59891E-07-1.59181E-04-1.53717E-06-1.10714E-06-9.00532E-05 8.99491E-07-3.14212E-05



 n o d a l   p r i n t   o u t   f o r   t i m e  s t e p    4601                              ( at time 2.2997698E+00 )

 nodal point  x-disp     y-disp      z-disp      x-vel       y-vel       z-vel      x-accl      y-accl      z-accl      x-coor      y-coor      z-coor
    22626 -7.62880E-04 6.56143E-02-1.28510E-01-6.45965E-04 5.01853E-02-9.87436E-02-1.50248E-03 1.02463E-02-2.01033E-02 4.65861E+00-2.81252E+01-4.51102E+01



 n o d a l   p r i n t   o u t   f o r   t i m e  s t e p    4601                              ( at time 2.2997698E+00 )

 nodal point  x-rot      y-rot       z-rot       x-rot vel   y-rot vel   z-rot vel   x-rot acc   y-rot acc   z-rot acc
    22626 -2.29836E-04-2.52171E-06-8.69312E-07-1.61412E-04 8.68455E-07-9.72355E-07-2.23167E-05 2.40586E-05 1.34796E-06



 n o d a l   p r i n t   o u t   f o r   t i m e  s t e p    4801                              ( at time 2.3997598E+00 )

 nodal point  x-disp     y-disp      z-disp      x-vel       y-vel       z-vel      x-accl      y-accl      z-accl      x-coor      y-coor      z-coor
    22626 -8.37361E-04 7.07390E-02-1.38609E-01-7.66184E-04 5.20309E-02-1.03264E-01-1.20231E-03 1.84581E-02-4.52112E-02 4.65854E+00-2.81201E+01-4.51203E+01



 n o d a l   p r i n t   o u t   f o r   t i m e  s t e p    4801                              ( at time 2.3997598E+00 )

 nodal point  x-rot      y-rot       z-rot       x-rot vel   y-rot vel   z-rot vel   x-rot acc   y-rot acc   z-rot acc
    22626 -2.45589E-04-2.51312E-06-5.96775E-07-1.55280E-04-1.55639E-08 4.33799E-06 6.13278E-05-8.84109E-06 5.31088E-05



 n o d a l   p r i n t   o u t   f o r   t i m e  s t e p    5001                              ( at time 2.4997498E+00 )

 nodal point  x-disp     y-disp      z-disp      x-vel       y-vel       z-vel      x-accl      y-accl      z-accl      x-coor      y-coor      z-coor
    22626 -9.18524E-04 7.60402E-02-1.49107E-01-9.23606E-04 5.34342E-02-1.05955E-01-1.57438E-03 1.40339E-02-2.69083E-02 4.65846E+00-2.81148E+01-4.51308E+01



 n o d a l   p r i n t   o u t   f o r   t i m e  s t e p    5001                              ( at time 2.4997498E+00 )

 nodal point  x-rot      y-rot       z-rot       x-rot vel   y-rot vel   z-rot vel   x-rot acc   y-rot acc   z-rot acc
    22626 -2.61160E-04-2.39292E-06-3.34683E-07-1.54767E-04 1.68631E-06 4.34664E-06 5.13180E-06 1.70204E-05 8.65697E-08



 n o d a l   p r i n t   o u t   f o r   t i m e  s t e p    5201                              ( at time 2.5997398E+00 )

 nodal point  x-disp     y-disp      z-disp      x-vel       y-vel       z-vel      x-accl      y-accl      z-accl      x-coor      y-coor      z-coor
    22626 -1.00927E-03 8.13921E-02-1.59710E-01-9.94337E-04 5.34909E-02-1.06026E-01-7.07374E-04 5.67456E-04-7.07057E-04 4.65837E+00-2.81094E+01-4.51414E+01



 n o d a l   p r i n t   o u t   f o r   t i m e  s t e p    5201                              ( at time 2.5997398E+00 )

 nodal point  x-rot      y-rot       z-rot       x-rot vel   y-rot vel   z-rot vel   x-rot acc   y-rot acc   z-rot acc
    22626 -2.76669E-04-2.06533E-06 5.64105E-08-1.51746E-04 5.19582E-06 4.90620E-06 3.02098E-05 3.50986E-05 5.59607E-06



 n o d a l   p r i n t   o u t   f o r   t i m e  s t e p    5401                              ( at time 2.6997298E+00 )

 nodal point  x-disp     y-disp      z-disp      x-vel       y-vel       z-vel      x-accl      y-accl      z-accl      x-coor      y-coor      z-coor
    22626 -1.10741E-03 8.67281E-02-1.70314E-01-8.15852E-04 5.35622E-02-1.06229E-01 1.78502E-03 7.12569E-04-2.03861E-03 4.65827E+00-2.81041E+01-4.51520E+01



 n o d a l   p r i n t   o u t   f o r   t i m e  s t e p    5401                              ( at time 2.6997298E+00 )

 nodal point  x-rot      y-rot       z-rot       x-rot vel   y-rot vel   z-rot vel   x-rot acc   y-rot acc   z-rot acc
    22626 -2.92382E-04-1.62669E-06 5.81642E-07-1.63173E-04 5.37121E-06 3.63785E-06-1.14284E-04 1.75409E-06-1.26847E-05



 n o d a l   p r i n t   o u t   f o r   t i m e  s t e p    5601                              ( at time 2.7997198E+00 )

 nodal point  x-disp     y-disp      z-disp      x-vel       y-vel       z-vel      x-accl      y-accl      z-accl      x-coor      y-coor      z-coor
    22626 -1.19445E-03 9.21214E-02-1.80982E-01-8.86381E-04 5.42814E-02-1.07483E-01-7.05357E-04 7.19292E-03-1.25410E-02 4.65818E+00-2.80987E+01-4.51627E+01



 n o d a l   p r i n t   o u t   f o r   t i m e  s t e p    5601                              ( at time 2.7997198E+00 )

 nodal point  x-rot      y-rot       z-rot       x-rot vel   y-rot vel   z-rot vel   x-rot acc   y-rot acc   z-rot acc
    22626 -3.07869E-04-1.11418E-06 9.98662E-07-1.44648E-04 3.12965E-06 4.37707E-06 1.85270E-04-2.24179E-05 7.39288E-06



 n o d a l   p r i n t   o u t   f o r   t i m e  s t e p    5801                              ( at time 2.8997098E+00 )

 nodal point  x-disp     y-disp      z-disp      x-vel       y-vel       z-vel      x-accl      y-accl      z-accl      x-coor      y-coor      z-coor
    22626 -1.27553E-03 9.75474E-02-1.91834E-01-7.31384E-04 5.43069E-02-1.09509E-01 1.55012E-03 2.55394E-04-2.02623E-02 4.65810E+00-2.80933E+01-4.51736E+01



 n o d a l   p r i n t   o u t   f o r   t i m e  s t e p    5801                              ( at time 2.8997098E+00 )

 nodal point  x-rot      y-rot       z-rot       x-rot vel   y-rot vel   z-rot vel   x-rot acc   y-rot acc   z-rot acc
    22626 -3.21834E-04-9.23781E-07 1.29075E-06-1.40694E-04 4.55610E-07 3.54171E-06 3.95455E-05-2.67431E-05-8.35446E-06



 n o d a l   p r i n t   o u t   f o r   t i m e  s t e p    6001                              ( at time 2.9996998E+00 )

 nodal point  x-disp     y-disp      z-disp      x-vel       y-vel       z-vel      x-accl      y-accl      z-accl      x-coor      y-coor      z-coor
    22626 -1.35750E-03 1.02955E-01-2.02801E-01-6.96427E-04 5.38202E-02-1.09383E-01 3.49605E-04-4.86713E-03 1.26285E-03 4.65802E+00-2.80879E+01-4.51845E+01



 n o d a l   p r i n t   o u t   f o r   t i m e  s t e p    6001                              ( at time 2.9996998E+00 )

 nodal point  x-rot      y-rot       z-rot       x-rot vel   y-rot vel   z-rot vel   x-rot acc   y-rot acc   z-rot acc
    22626 -3.36694E-04-8.73249E-07 1.49294E-06-1.51820E-04 5.83312E-07 2.74617E-06-1.11267E-04 1.27715E-06-7.95611E-06



 n o d a l   p r i n t   o u t   f o r   t i m e  s t e p    6201                              ( at time 3.0996898E+00 )

 nodal point  x-disp     y-disp      z-disp      x-vel       y-vel       z-vel      x-accl      y-accl      z-accl      x-coor      y-coor      z-coor
    22626 -1.42148E-03 1.08346E-01-2.13698E-01-6.81960E-04 5.42482E-02-1.09070E-01 1.44692E-04 4.27975E-03 3.12896E-03 4.65795E+00-2.80825E+01-4.51954E+01



 n o d a l   p r i n t   o u t   f o r   t i m e  s t e p    6201                              ( at time 3.0996898E+00 )

 nodal point  x-rot      y-rot       z-rot       x-rot vel   y-rot vel   z-rot vel   x-rot acc   y-rot acc   z-rot acc
    22626 -3.51928E-04-7.51690E-07 1.82527E-06-1.52560E-04 7.18265E-07 5.35934E-06-7.40433E-06 1.34967E-06 2.61343E-05



 n o d a l   p r i n t   o u t   f o r   t i m e  s t e p    6401                              ( at time 3.1996798E+00 )

 nodal point  x-disp     y-disp      z-disp      x-vel       y-vel       z-vel      x-accl      y-accl      z-accl      x-coor      y-coor      z-coor
    22626 -1.48091E-03 1.13830E-01-2.24701E-01-5.94572E-04 5.55485E-02-1.11152E-01 8.73958E-04 1.30048E-02-2.08170E-02 4.65789E+00-2.80770E+01-4.52064E+01



 n o d a l   p r i n t   o u t   f o r   t i m e  s t e p    6401                              ( at time 3.1996798E+00 )

 nodal point  x-rot      y-rot       z-rot       x-rot vel   y-rot vel   z-rot vel   x-rot acc   y-rot acc   z-rot acc
    22626 -3.67275E-04-5.71990E-07 2.06336E-06-1.49224E-04 2.41336E-06 1.77668E-06 3.33654E-05 1.69526E-05-3.58301E-05



 n o d a l   p r i n t   o u t   f o r   t i m e  s t e p    6601                              ( at time 3.2996698E+00 )

 nodal point  x-disp     y-disp      z-disp      x-vel       y-vel       z-vel      x-accl      y-accl      z-accl      x-coor      y-coor      z-coor
    22626 -1.55359E-03 1.19476E-01-2.35929E-01-7.59520E-04 5.73973E-02-1.13155E-01-1.64964E-03 1.84897E-02-2.00329E-02 4.65782E+00-2.80714E+01-4.52176E+01



 n o d a l   p r i n t   o u t   f o r   t i m e  s t e p    6601                              ( at time 3.2996698E+00 )

 nodal point  x-rot      y-rot       z-rot       x-rot vel   y-rot vel   z-rot vel   x-rot acc   y-rot acc   z-rot acc
    22626 -3.82628E-04-3.36313E-07 2.42214E-06-1.55080E-04 3.91348E-06 4.33020E-06-5.85720E-05 1.50027E-05 2.55378E-05



 n o d a l   p r i n t   o u t   f o r   t i m e  s t e p    6801                              ( at time 3.3996598E+00 )

 nodal point  x-disp     y-disp      z-disp      x-vel       y-vel       z-vel      x-accl      y-accl      z-accl      x-coor      y-coor      z-coor
    22626 -1.63985E-03 1.25324E-01-2.47290E-01-1.09622E-03 5.96474E-02-1.13949E-01-3.36737E-03 2.25028E-02-7.93938E-03 4.65774E+00-2.80655E+01-4.52290E+01



 n o d a l   p r i n t   o u t   f o r   t i m e  s t e p    6801                              ( at time 3.3996598E+00 )

 nodal point  x-rot      y-rot       z-rot       x-rot vel   y-rot vel   z-rot vel   x-rot acc   y-rot acc   z-rot acc
    22626 -3.98697E-04-1.86991E-07 2.72805E-06-1.68354E-04 2.21415E-06 2.64648E-06-1.32753E-04-1.69949E-05-1.68389E-05



 n o d a l   p r i n t   o u t   f o r   t i m e  s t e p    7001                              ( at time 3.4996498E+00 )

 nodal point  x-disp     y-disp      z-disp      x-vel       y-vel       z-vel      x-accl      y-accl      z-accl      x-coor      y-coor      z-coor
    22626 -1.75281E-03 1.31385E-01-2.58631E-01-1.17654E-03 6.16499E-02-1.12759E-01-8.03218E-04 2.00272E-02 1.18974E-02 4.65762E+00-2.80594E+01-4.52404E+01



 n o d a l   p r i n t   o u t   f o r   t i m e  s t e p    7001                              ( at time 3.4996498E+00 )

 nodal point  x-rot      y-rot       z-rot       x-rot vel   y-rot vel   z-rot vel   x-rot acc   y-rot acc   z-rot acc
    22626 -4.16841E-04-3.98470E-08 2.80258E-06-1.91779E-04 2.85702E-06 1.49177E-06-2.34273E-04 6.42932E-06-1.15483E-05



 n o d a l   p r i n t   o u t   f o r   t i m e  s t e p    7201                              ( at time 3.5996397E+00 )

 nodal point  x-disp     y-disp      z-disp      x-vel       y-vel       z-vel      x-accl      y-accl      z-accl      x-coor      y-coor      z-coor
    22626 -1.86311E-03 1.37668E-01-2.69826E-01-1.01950E-03 6.41678E-02-1.11912E-01 1.57058E-03 2.51815E-02 8.47477E-03 4.65751E+00-2.80532E+01-4.52515E+01



 n o d a l   p r i n t   o u t   f o r   t i m e  s t e p    7201                              ( at time 3.5996397E+00 )

 nodal point  x-rot      y-rot       z-rot       x-rot vel   y-rot vel   z-rot vel   x-rot acc   y-rot acc   z-rot acc
    22626 -4.36864E-04 4.27256E-07 3.02884E-06-2.17355E-04 1.48688E-06-2.67287E-06-2.55783E-04-1.37028E-05-4.16506E-05



 n o d a l   p r i n t   o u t   f o r   t i m e  s t e p    7401                              ( at time 3.6996297E+00 )

 nodal point  x-disp     y-disp      z-disp      x-vel       y-vel       z-vel      x-accl      y-accl      z-accl      x-coor      y-coor      z-coor
    22626 -1.97502E-03 1.44288E-01-2.81052E-01-1.01513E-03 6.81444E-02-1.12621E-01 4.36472E-05 3.97705E-02-7.09514E-03 4.65740E+00-2.80465E+01-4.52628E+01



 n o d a l   p r i n t   o u t   f o r   t i m e  s t e p    7401                              ( at time 3.6996297E+00 )

 nodal point  x-rot      y-rot       z-rot       x-rot vel   y-rot vel   z-rot vel   x-rot acc   y-rot acc   z-rot acc
    22626 -4.59526E-04 6.60638E-07 3.02442E-06-2.42987E-04 1.51321E-06 4.25106E-06-2.56339E-04 2.63316E-07 6.92461E-05



 n o d a l   p r i n t   o u t   f o r   t i m e  s t e p    7601                              ( at time 3.7996197E+00 )

 nodal point  x-disp     y-disp      z-disp      x-vel       y-vel       z-vel      x-accl      y-accl      z-accl      x-coor      y-coor      z-coor
    22626 -2.08001E-03 1.51302E-01-2.92292E-01-1.14339E-03 7.22952E-02-1.12046E-01-1.28271E-03 4.15115E-02 5.75355E-03 4.65730E+00-2.80395E+01-4.52740E+01



 n o d a l   p r i n t   o u t   f o r   t i m e  s t e p    7601                              ( at time 3.7996197E+00 )

 nodal point  x-rot      y-rot       z-rot       x-rot vel   y-rot vel   z-rot vel   x-rot acc   y-rot acc   z-rot acc
    22626 -4.85039E-04 5.63762E-07 3.16651E-06-2.80893E-04-5.14432E-06-5.96995E-06-3.79104E-04-6.65820E-05-1.02220E-04



 n o d a l   p r i n t   o u t   f o r   t i m e  s t e p    7801                              ( at time 3.8996097E+00 )

 nodal point  x-disp     y-disp      z-disp      x-vel       y-vel       z-vel      x-accl      y-accl      z-accl      x-coor      y-coor      z-coor
    22626 -2.21728E-03 1.58779E-01-3.03437E-01-1.59291E-03 7.72608E-02-1.10454E-01-4.49563E-03 4.96612E-02 1.59154E-02 4.65716E+00-2.80321E+01-4.52852E+01



 n o d a l   p r i n t   o u t   f o r   t i m e  s t e p    7801                              ( at time 3.8996097E+00 )

 nodal point  x-rot      y-rot       z-rot       x-rot vel   y-rot vel   z-rot vel   x-rot acc   y-rot acc   z-rot acc
    22626 -5.15478E-04-2.18581E-07 2.06064E-06-3.36144E-04-4.23120E-06-8.49478E-06-5.52561E-04 9.13205E-06-2.52508E-05



 n o d a l   p r i n t   o u t   f o r   t i m e  s t e p    8001                              ( at time 3.9995997E+00 )

 nodal point  x-disp     y-disp      z-disp      x-vel       y-vel       z-vel      x-accl      y-accl      z-accl      x-coor      y-coor      z-coor
    22626 -2.35737E-03 1.66811E-01-3.14396E-01-1.44465E-03 8.37148E-02-1.08798E-01 1.48275E-03 6.45465E-02 1.65675E-02 4.65702E+00-2.80240E+01-4.52961E+01



 n o d a l   p r i n t   o u t   f o r   t i m e  s t e p    8001                              ( at time 3.9995997E+00 )

 nodal point  x-rot      y-rot       z-rot       x-rot vel   y-rot vel   z-rot vel   x-rot acc   y-rot acc   z-rot acc
    22626 -5.51444E-04-1.03053E-06 9.27698E-07-3.83604E-04-9.51313E-06-1.45172E-05-4.74653E-04-5.28246E-05-6.02300E-05



 n o d a l   p r i n t   o u t   f o r   t i m e  s t e p    8201                              ( at time 4.0995897E+00 )

 nodal point  x-disp     y-disp      z-disp      x-vel       y-vel       z-vel      x-accl      y-accl      z-accl      x-coor      y-coor      z-coor
    22626 -2.53300E-03 1.75511E-01-3.25276E-01-2.45696E-03 9.06771E-02-1.08774E-01-1.01241E-02 6.96302E-02 2.41274E-04 4.65684E+00-2.80153E+01-4.53070E+01



 n o d a l   p r i n t   o u t   f o r   t i m e  s t e p    8201                              ( at time 4.0995897E+00 )

 nodal point  x-rot      y-rot       z-rot       x-rot vel   y-rot vel   z-rot vel   x-rot acc   y-rot acc   z-rot acc
    22626 -5.91584E-04-2.70350E-06-1.65021E-06-4.33041E-04-2.02556E-05-3.55413E-05-4.94416E-04-1.07435E-04-2.10262E-04



 n o d a l   p r i n t   o u t   f o r   t i m e  s t e p    8401                              ( at time 4.1995797E+00 )

 nodal point  x-disp     y-disp      z-disp      x-vel       y-vel       z-vel      x-accl      y-accl      z-accl      x-coor      y-coor      z-coor
    22626 -2.79684E-03 1.85007E-01-3.36123E-01-2.69853E-03 9.94695E-02-1.08086E-01-2.41599E-03 8.79330E-02 6.87423E-03 4.65658E+00-2.80058E+01-4.53178E+01



 n o d a l   p r i n t   o u t   f o r   t i m e  s t e p    8401                              ( at time 4.1995797E+00 )

 nodal point  x-rot      y-rot       z-rot       x-rot vel   y-rot vel   z-rot vel   x-rot acc   y-rot acc   z-rot acc
    22626 -6.38355E-04-4.99129E-06-5.04863E-06-5.05679E-04-2.27634E-05-3.47922E-05-7.26456E-04-2.50809E-05 7.49190E-06



 n o d a l   p r i n t   o u t   f o r   t i m e  s t e p    8601                              ( at time 4.2995697E+00 )

 nodal point  x-disp     y-disp      z-disp      x-vel       y-vel       z-vel      x-accl      y-accl      z-accl      x-coor      y-coor      z-coor
    22626 -3.07287E-03 1.95401E-01-3.46881E-01-2.93165E-03 1.08367E-01-1.06967E-01-2.33143E-03 8.89845E-02 1.11967E-02 4.65630E+00-2.79954E+01-4.53286E+01



 n o d a l   p r i n t   o u t   f o r   t i m e  s t e p    8601                              ( at time 4.2995697E+00 )

 nodal point  x-rot      y-rot       z-rot       x-rot vel   y-rot vel   z-rot vel   x-rot acc   y-rot acc   z-rot acc
    22626 -6.92105E-04-7.46169E-06-8.68193E-06-5.73688E-04-2.38858E-05-3.87664E-05-6.80157E-04-1.12246E-05-3.97464E-05



 n o d a l   p r i n t   o u t   f o r   t i m e  s t e p    8801                              ( at time 4.3995597E+00 )

 nodal point  x-disp     y-disp      z-disp      x-vel       y-vel       z-vel      x-accl      y-accl      z-accl      x-coor      y-coor      z-coor
    22626 -3.39032E-03 2.06686E-01-3.57436E-01-2.98782E-03 1.17523E-01-1.04538E-01-5.61763E-04 9.15668E-02 2.42938E-02 4.65598E+00-2.79841E+01-4.53392E+01



 n o d a l   p r i n t   o u t   f o r   t i m e  s t e p    8801                              ( at time 4.3995597E+00 )

 nodal point  x-rot      y-rot       z-rot       x-rot vel   y-rot vel   z-rot vel   x-rot acc   y-rot acc   z-rot acc
    22626 -7.52909E-04-9.72090E-06-1.24870E-05-6.50799E-04-2.74149E-05-3.10510E-05-7.71186E-04-3.52944E-05 7.71619E-05



 n o d a l   p r i n t   o u t   f o r   t i m e  s t e p    9001                              ( at time 4.4995497E+00 )

 nodal point  x-disp     y-disp      z-disp      x-vel       y-vel       z-vel      x-accl      y-accl      z-accl      x-coor      y-coor      z-coor
    22626 -3.71781E-03 2.19032E-01-3.67842E-01-3.43357E-03 1.29481E-01-1.03919E-01-4.45790E-03 1.19594E-01 6.18271E-03 4.65566E+00-2.79718E+01-4.53496E+01



 n o d a l   p r i n t   o u t   f o r   t i m e  s t e p    9001                              ( at time 4.4995497E+00 )

 nodal point  x-rot      y-rot       z-rot       x-rot vel   y-rot vel   z-rot vel   x-rot acc   y-rot acc   z-rot acc
    22626 -8.22906E-04-1.24780E-05-1.62636E-05-7.47490E-04-3.15724E-05-4.26052E-05-9.67005E-04-4.15797E-05-1.15554E-04



 n o d a l   p r i n t   o u t   f o r   t i m e  s t e p    9201                              ( at time 4.5995397E+00 )

 nodal point  x-disp     y-disp      z-disp      x-vel       y-vel       z-vel      x-accl      y-accl      z-accl      x-coor      y-coor      z-coor
    22626 -4.09561E-03 2.32584E-01-3.78201E-01-3.68450E-03 1.41966E-01-1.03236E-01-2.50959E-03 1.24860E-01 6.83138E-03 4.65528E+00-2.79582E+01-4.53599E+01



 n o d a l   p r i n t   o u t   f o r   t i m e  s t e p    9201                              ( at time 4.5995397E+00 )

 nodal point  x-rot      y-rot       z-rot       x-rot vel   y-rot vel   z-rot vel   x-rot acc   y-rot acc   z-rot acc
    22626 -9.02067E-04-1.52940E-05-2.08360E-05-8.35274E-04-2.77288E-05-4.37628E-05-8.77931E-04 3.84407E-05-1.15766E-05



 n o d a l   p r i n t   o u t   f o r   t i m e  s t e p    9401                              ( at time 4.6995297E+00 )

 nodal point  x-disp     y-disp      z-disp      x-vel       y-vel       z-vel      x-accl      y-accl      z-accl      x-coor      y-coor      z-coor
    22626 -4.43308E-03 2.47416E-01-3.88500E-01-3.53399E-03 1.54855E-01-1.02597E-01 1.50526E-03 1.28907E-01 6.39906E-03 4.65494E+00-2.79434E+01-4.53702E+01



 n o d a l   p r i n t   o u t   f o r   t i m e  s t e p    9401                              ( at time 4.6995297E+00 )

 nodal point  x-rot      y-rot       z-rot       x-rot vel   y-rot vel   z-rot vel   x-rot acc   y-rot acc   z-rot acc
    22626 -9.90994E-04-1.81063E-05-2.44682E-05-9.44330E-04-2.86054E-05-3.43613E-05-1.09067E-03-8.76749E-06 9.40246E-05



 n o d a l   p r i n t   o u t   f o r   t i m e  s t e p    9601                              ( at time 4.7995197E+00 )

 nodal point  x-disp     y-disp      z-disp      x-vel       y-vel       z-vel      x-accl      y-accl      z-accl      x-coor      y-coor      z-coor
    22626 -4.79634E-03 2.63591E-01-3.98671E-01-3.95760E-03 1.68668E-01-1.00354E-01-4.23648E-03 1.38137E-01 2.24300E-02 4.65458E+00-2.79272E+01-4.53804E+01



 n o d a l   p r i n t   o u t   f o r   t i m e  s t e p    9601                              ( at time 4.7995197E+00 )

 nodal point  x-rot      y-rot       z-rot       x-rot vel   y-rot vel   z-rot vel   x-rot acc   y-rot acc   z-rot acc
    22626 -1.09100E-03-2.18237E-05-2.91248E-05-1.05430E-03-3.81058E-05-5.56052E-05-1.09978E-03-9.50134E-05-2.12461E-04



 n o d a l   p r i n t   o u t   f o r   t i m e  s t e p    9801                              ( at time 4.8995097E+00 )

 nodal point  x-disp     y-disp      z-disp      x-vel       y-vel       z-vel      x-accl      y-accl      z-accl      x-coor      y-coor      z-coor
    22626 -5.19971E-03 2.81178E-01-4.08601E-01-3.84993E-03 1.83651E-01-9.83835E-02 1.07681E-03 1.49852E-01 1.97050E-02 4.65418E+00-2.79097E+01-4.53903E+01



 n o d a l   p r i n t   o u t   f o r   t i m e  s t e p    9801                              ( at time 4.8995097E+00 )

 nodal point  x-rot      y-rot       z-rot       x-rot vel   y-rot vel   z-rot vel   x-rot acc   y-rot acc   z-rot acc
    22626 -1.20212E-03-2.56217E-05-3.41199E-05-1.15984E-03-3.30505E-05-4.36663E-05-1.05552E-03 5.05583E-05 1.19402E-04



 n o d a l   p r i n t   o u t   f o r   t i m e  s t e p   10001                              ( at time 4.9994997E+00 )

 nodal point  x-disp     y-disp      z-disp      x-vel       y-vel       z-vel      x-accl      y-accl      z-accl      x-coor      y-coor      z-coor
    22626 -5.59032E-03 3.00312E-01-4.18456E-01-4.04703E-03 1.99171E-01-9.82751E-02-1.97124E-03 1.55207E-01 1.08424E-03 4.65378E+00-2.78905E+01-4.54002E+01



 n o d a l   p r i n t   o u t   f o r   t i m e  s t e p   10001                              ( at time 4.9994997E+00 )

 nodal point  x-rot      y-rot       z-rot       x-rot vel   y-rot vel   z-rot vel   x-rot acc   y-rot acc   z-rot acc
    22626 -1.32456E-03-2.93947E-05-3.88812E-05-1.27687E-03-4.44835E-05-5.29061E-05-1.17040E-03-1.14341E-04-9.24074E-05



 n o d a l   p r i n t   o u t   f o r   t i m e  s t e p   10202                              ( at time 5.0999896E+00 )

 nodal point  x-disp     y-disp      z-disp      x-vel       y-vel       z-vel      x-accl      y-accl      z-accl      x-coor      y-coor      z-coor
    22626 -6.03434E-03 3.21125E-01-4.28311E-01-4.74071E-03 2.14925E-01-9.76209E-02-6.90295E-03 1.56774E-01 6.51003E-03 4.65334E+00-2.78697E+01-4.54100E+01



 n o d a l   p r i n t   o u t   f o r   t i m e  s t e p   10202                              ( at time 5.0999896E+00 )

 nodal point  x-rot      y-rot       z-rot       x-rot vel   y-rot vel   z-rot vel   x-rot acc   y-rot acc   z-rot acc
    22626 -1.45948E-03-3.37251E-05-4.44208E-05-1.40252E-03-4.00948E-05-5.06540E-05-1.25045E-03 4.36731E-05 2.24116E-05



 n o d a l   p r i n t   o u t   f o r   t i m e  s t e p   10402                              ( at time 5.1999796E+00 )

 nodal point  x-disp     y-disp      z-disp      x-vel       y-vel       z-vel      x-accl      y-accl      z-accl      x-coor      y-coor      z-coor
    22626 -6.54346E-03 3.43417E-01-4.37957E-01-5.26821E-03 2.30775E-01-9.56071E-02-5.27552E-03 1.58517E-01 2.01404E-02 4.65283E+00-2.78474E+01-4.54197E+01



 n o d a l   p r i n t   o u t   f o r   t i m e  s t e p   10402                              ( at time 5.1999796E+00 )

 nodal point  x-rot      y-rot       z-rot       x-rot vel   y-rot vel   z-rot vel   x-rot acc   y-rot acc   z-rot acc
    22626 -1.60589E-03-3.84115E-05-4.97593E-05-1.53284E-03-5.33231E-05-5.92825E-05-1.30326E-03-1.32296E-04-8.62935E-05



 n o d a l   p r i n t   o u t   f o r   t i m e  s t e p   10602                              ( at time 5.2999696E+00 )

 nodal point  x-disp     y-disp      z-disp      x-vel       y-vel       z-vel      x-accl      y-accl      z-accl      x-coor      y-coor      z-coor
    22626 -7.09045E-03 3.67355E-01-4.47386E-01-5.32822E-03 2.47384E-01-9.37999E-02-6.00144E-04 1.66105E-01 1.80731E-02 4.65228E+00-2.78235E+01-4.54291E+01



 n o d a l   p r i n t   o u t   f o r   t i m e  s t e p   10602                              ( at time 5.2999696E+00 )

 nodal point  x-rot      y-rot       z-rot       x-rot vel   y-rot vel   z-rot vel   x-rot acc   y-rot acc   z-rot acc
    22626 -1.76537E-03-4.29627E-05-5.53366E-05-1.66187E-03-3.57491E-05-5.32435E-05-1.29047E-03 1.75757E-04 6.03960E-05



 n o d a l   p r i n t   o u t   f o r   t i m e  s t e p   10802                              ( at time 5.3999596E+00 )

 nodal point  x-disp     y-disp      z-disp      x-vel       y-vel       z-vel      x-accl      y-accl      z-accl      x-coor      y-coor      z-coor
    22626 -7.61783E-03 3.92983E-01-4.56660E-01-5.62589E-03 2.64802E-01-9.23642E-02-2.97700E-03 1.74204E-01 1.43589E-02 4.65176E+00-2.77978E+01-4.54384E+01



 n o d a l   p r i n t   o u t   f o r   t i m e  s t e p   10802                              ( at time 5.3999596E+00 )

 nodal point  x-rot      y-rot       z-rot       x-rot vel   y-rot vel   z-rot vel   x-rot acc   y-rot acc   z-rot acc
    22626 -1.93735E-03-4.69726E-05-6.03293E-05-1.77925E-03-5.26517E-05-5.20731E-05-1.17395E-03-1.69042E-04 1.17054E-05



 n o d a l   p r i n t   o u t   f o r   t i m e  s t e p   11002                              ( at time 5.4999496E+00 )

 nodal point  x-disp     y-disp      z-disp      x-vel       y-vel       z-vel      x-accl      y-accl      z-accl      x-coor      y-coor      z-coor
    22626 -8.25144E-03 4.20328E-01-4.65781E-01-6.76315E-03 2.81718E-01-8.99513E-02-1.13738E-02 1.69171E-01 2.41315E-02 4.65112E+00-2.77705E+01-4.54475E+01



 n o d a l   p r i n t   o u t   f o r   t i m e  s t e p   11002                              ( at time 5.4999496E+00 )

 nodal point  x-rot      y-rot       z-rot       x-rot vel   y-rot vel   z-rot vel   x-rot acc   y-rot acc   z-rot acc
    22626 -2.12174E-03-5.27418E-05-6.63890E-05-1.90540E-03-5.69454E-05-6.46903E-05-1.26158E-03-4.29414E-05-1.26185E-04



 n o d a l   p r i n t   o u t   f o r   t i m e  s t e p   11202                              ( at time 5.5999396E+00 )

 nodal point  x-disp     y-disp      z-disp      x-vel       y-vel       z-vel      x-accl      y-accl      z-accl      x-coor      y-coor      z-coor
    22626 -8.85837E-03 4.49353E-01-4.74611E-01-5.69915E-03 2.99370E-01-8.61928E-02 1.06411E-02 1.76541E-01 3.75888E-02 4.65052E+00-2.77415E+01-4.54563E+01



 n o d a l   p r i n t   o u t   f o r   t i m e  s t e p   11202                              ( at time 5.5999396E+00 )

 nodal point  x-rot      y-rot       z-rot       x-rot vel   y-rot vel   z-rot vel   x-rot acc   y-rot acc   z-rot acc
    22626 -2.31984E-03-5.75367E-05-7.18194E-05-2.04080E-03-4.21139E-05-4.24020E-05-1.35411E-03 1.48330E-04 2.22906E-04



 n o d a l   p r i n t   o u t   f o r   t i m e  s t e p   11402                              ( at time 5.6999296E+00 )

 nodal point  x-disp     y-disp      z-disp      x-vel       y-vel       z-vel      x-accl      y-accl      z-accl      x-coor      y-coor      z-coor
    22626 -9.45924E-03 4.80092E-01-4.83027E-01-6.42561E-03 3.15652E-01-8.16149E-02-7.26527E-03 1.62840E-01 4.57826E-02 4.64992E+00-2.77107E+01-4.54647E+01



 n o d a l   p r i n t   o u t   f o r   t i m e  s t e p   11402                              ( at time 5.6999296E+00 )

 nodal point  x-rot      y-rot       z-rot       x-rot vel   y-rot vel   z-rot vel   x-rot acc   y-rot acc   z-rot acc
    22626 -2.53128E-03-6.26886E-05-7.68138E-05-2.16683E-03-6.56839E-05-6.56218E-05-1.26049E-03-2.35723E-04-2.32221E-04



 n o d a l   p r i n t   o u t   f o r   t i m e  s t e p   11602                              ( at time 5.7999195E+00 )

 nodal point  x-disp     y-disp      z-disp      x-vel       y-vel       z-vel      x-accl      y-accl      z-accl      x-coor      y-coor      z-coor
    22626 -1.01693E-02 5.12521E-01-4.91012E-01-7.29555E-03 3.33060E-01-7.80464E-02-8.70028E-03 1.74099E-01 3.56888E-02 4.64921E+00-2.76783E+01-4.54727E+01



 n o d a l   p r i n t   o u t   f o r   t i m e  s t e p   11602                              ( at time 5.7999195E+00 )

 nodal point  x-rot      y-rot       z-rot       x-rot vel   y-rot vel   z-rot vel   x-rot acc   y-rot acc   z-rot acc
    22626 -2.75534E-03-6.97751E-05-8.39826E-05-2.30235E-03-6.64062E-05-7.16360E-05-1.35534E-03-7.22430E-06-6.01481E-05



 n o d a l   p r i n t   o u t   f o r   t i m e  s t e p   11802                              ( at time 5.8999095E+00 )

 nodal point  x-disp     y-disp      z-disp      x-vel       y-vel       z-vel      x-accl      y-accl      z-accl      x-coor      y-coor      z-coor
    22626 -1.08669E-02 5.46733E-01-4.98631E-01-7.00483E-03 3.51120E-01-7.44930E-02 2.90752E-03 1.80614E-01 3.55379E-02 4.64851E+00-2.76441E+01-4.54804E+01



 n o d a l   p r i n t   o u t   f o r   t i m e  s t e p   11802                              ( at time 5.8999095E+00 )

 nodal point  x-rot      y-rot       z-rot       x-rot vel   y-rot vel   z-rot vel   x-rot acc   y-rot acc   z-rot acc
    22626 -2.99304E-03-7.57302E-05-9.01513E-05-2.45736E-03-6.27840E-05-5.66521E-05-1.55020E-03 3.62262E-05 1.49854E-04



 n o d a l   p r i n t   o u t   f o r   t i m e  s t e p   12002                              ( at time 5.9998995E+00 )

 nodal point  x-disp     y-disp      z-disp      x-vel       y-vel       z-vel      x-accl      y-accl      z-accl      x-coor      y-coor      z-coor
    22626 -1.15953E-02 5.82757E-01-5.05844E-01-7.39033E-03 3.68700E-01-6.99147E-02-3.85541E-03 1.75820E-01 4.57879E-02 4.64778E+00-2.76081E+01-4.54876E+01



 n o d a l   p r i n t   o u t   f o r   t i m e  s t e p   12002                              ( at time 5.9998995E+00 )

 nodal point  x-rot      y-rot       z-rot       x-rot vel   y-rot vel   z-rot vel   x-rot acc   y-rot acc   z-rot acc
    22626 -3.24569E-03-8.23241E-05-9.66780E-05-2.59762E-03-7.21433E-05-7.67919E-05-1.40275E-03-9.36023E-05-2.01418E-04



 n o d a l   p r i n t   o u t   f o r   t i m e  s t e p   12202                              ( at time 6.0998895E+00 )

 nodal point  x-disp     y-disp      z-disp      x-vel       y-vel       z-vel      x-accl      y-accl      z-accl      x-coor      y-coor      z-coor
    22626 -1.24167E-02 6.20513E-01-5.12553E-01-8.86509E-03 3.86898E-01-6.46345E-02-1.47490E-02 1.81997E-01 5.28070E-02 4.64696E+00-2.75703E+01-4.54943E+01



 n o d a l   p r i n t   o u t   f o r   t i m e  s t e p   12202                              ( at time 6.0998895E+00 )

 nodal point  x-rot      y-rot       z-rot       x-rot vel   y-rot vel   z-rot vel   x-rot acc   y-rot acc   z-rot acc
    22626 -3.51161E-03-8.99941E-05-1.04468E-04-2.73021E-03-7.71262E-05-7.78544E-05-1.32607E-03-4.98346E-05-1.06261E-05



 n o d a l   p r i n t   o u t   f o r   t i m e  s t e p   12402                              ( at time 6.1998795E+00 )

 nodal point  x-disp     y-disp      z-disp      x-vel       y-vel       z-vel      x-accl      y-accl      z-accl      x-coor      y-coor      z-coor
    22626 -1.32933E-02 6.60134E-01-5.18806E-01-8.58463E-03 4.05436E-01-6.03074E-02 2.80487E-03 1.85393E-01 4.32747E-02 4.64608E+00-2.75307E+01-4.55005E+01



 n o d a l   p r i n t   o u t   f o r   t i m e  s t e p   12402                              ( at time 6.1998795E+00 )

 nodal point  x-rot      y-rot       z-rot       x-rot vel   y-rot vel   z-rot vel   x-rot acc   y-rot acc   z-rot acc
    22626 -3.79179E-03-9.73528E-05-1.12128E-04-2.87343E-03-6.67190E-05-7.03354E-05-1.43227E-03 1.04083E-04 7.51976E-05



 n o d a l   p r i n t   o u t   f o r   t i m e  s t e p   12602                              ( at time 6.2998695E+00 )

 nodal point  x-disp     y-disp      z-disp      x-vel       y-vel       z-vel      x-accl      y-accl      z-accl      x-coor      y-coor      z-coor
    22626 -1.41195E-02 7.01599E-01-5.24591E-01-8.29831E-03 4.24327E-01-5.49261E-02 2.86349E-03 1.88935E-01 5.38192E-02 4.64526E+00-2.74892E+01-4.55063E+01



 n o d a l   p r i n t   o u t   f o r   t i m e  s t e p   12602                              ( at time 6.2998695E+00 )

 nodal point  x-rot      y-rot       z-rot       x-rot vel   y-rot vel   z-rot vel   x-rot acc   y-rot acc   z-rot acc
    22626 -4.08633E-03-1.03714E-04-1.18533E-04-3.01397E-03-6.74883E-05-6.77159E-05-1.40560E-03-7.69445E-06 2.61977E-05



 n o d a l   p r i n t   o u t   f o r   t i m e  s t e p   12802                              ( at time 6.3998595E+00 )

 nodal point  x-disp     y-disp      z-disp      x-vel       y-vel       z-vel      x-accl      y-accl      z-accl      x-coor      y-coor      z-coor
    22626 -1.50181E-02 7.44904E-01-5.29814E-01-9.71641E-03 4.42046E-01-4.91245E-02-1.41824E-02 1.77202E-01 5.80213E-02 4.64436E+00-2.74459E+01-4.55115E+01



 n o d a l   p r i n t   o u t   f o r   t i m e  s t e p   12802                              ( at time 6.3998595E+00 )

 nodal point  x-rot      y-rot       z-rot       x-rot vel   y-rot vel   z-rot vel   x-rot acc   y-rot acc   z-rot acc
    22626 -4.39487E-03-1.11794E-04-1.26239E-04-3.15917E-03-9.65611E-05-8.69969E-05-1.45213E-03-2.90757E-04-1.92829E-04



 n o d a l   p r i n t   o u t   f o r   t i m e  s t e p   13002                              ( at time 6.4998495E+00 )

 nodal point  x-disp     y-disp      z-disp      x-vel       y-vel       z-vel      x-accl      y-accl      z-accl      x-coor      y-coor      z-coor
    22626 -1.60051E-02 7.90003E-01-5.34414E-01-9.81427E-03 4.60322E-01-4.22396E-02-9.78789E-04 1.82786E-01 6.88558E-02 4.64337E+00-2.74008E+01-4.55161E+01



 n o d a l   p r i n t   o u t   f o r   t i m e  s t e p   13002                              ( at time 6.4998495E+00 )

 nodal point  x-rot      y-rot       z-rot       x-rot vel   y-rot vel   z-rot vel   x-rot acc   y-rot acc   z-rot acc
    22626 -4.71823E-03-1.20593E-04-1.35187E-04-3.30504E-03-7.63188E-05-8.44808E-05-1.45887E-03 2.02443E-04 2.51635E-05



 n o d a l   p r i n t   o u t   f o r   t i m e  s t e p   13202                              ( at time 6.5998395E+00 )

 nodal point  x-disp     y-disp      z-disp      x-vel       y-vel       z-vel      x-accl      y-accl      z-accl      x-coor      y-coor      z-coor
    22626 -1.69444E-02 8.36929E-01-5.38240E-01-8.64798E-03 4.78204E-01-3.41554E-02 1.16641E-02 1.78833E-01 8.08500E-02 4.64243E+00-2.73539E+01-4.55200E+01



 n o d a l   p r i n t   o u t   f o r   t i m e  s t e p   13202                              ( at time 6.5998395E+00 )

 nodal point  x-rot      y-rot       z-rot       x-rot vel   y-rot vel   z-rot vel   x-rot acc   y-rot acc   z-rot acc
    22626 -5.05612E-03-1.27791E-04-1.42822E-04-3.44718E-03-7.58762E-05-7.44347E-05-1.42150E-03 4.42639E-06 1.00470E-04



 n o d a l   p r i n t   o u t   f o r   t i m e  s t e p   13402                              ( at time 6.6998295E+00 )

 nodal point  x-disp     y-disp      z-disp      x-vel       y-vel       z-vel      x-accl      y-accl      z-accl      x-coor      y-coor      z-coor
    22626 -1.78240E-02 8.85659E-01-5.41319E-01-9.92072E-03 4.96139E-01-2.74083E-02-1.27287E-02 1.79370E-01 6.74779E-02 4.64155E+00-2.73052E+01-4.55230E+01



 n o d a l   p r i n t   o u t   f o r   t i m e  s t e p   13402                              ( at time 6.6998295E+00 )

 nodal point  x-rot      y-rot       z-rot       x-rot vel   y-rot vel   z-rot vel   x-rot acc   y-rot acc   z-rot acc
    22626 -5.40839E-03-1.36435E-04-1.50740E-04-3.59590E-03-9.35359E-05-8.85029E-05-1.48737E-03-1.76615E-04-1.40696E-04



 n o d a l   p r i n t   o u t   f o r   t i m e  s t e p   13602                              ( at time 6.7998195E+00 )

 nodal point  x-disp     y-disp      z-disp      x-vel       y-vel       z-vel      x-accl      y-accl      z-accl      x-coor      y-coor      z-coor
    22626 -1.89010E-02 9.36196E-01-5.43667E-01-1.09435E-02 5.14561E-01-1.94227E-02-1.02291E-02 1.84238E-01 7.98645E-02 4.64047E+00-2.72546E+01-4.55254E+01



 n o d a l   p r i n t   o u t   f o r   t i m e  s t e p   13602                              ( at time 6.7998195E+00 )

 nodal point  x-rot      y-rot       z-rot       x-rot vel   y-rot vel   z-rot vel   x-rot acc   y-rot acc   z-rot acc
    22626 -5.77551E-03-1.46038E-04-1.60779E-04-3.75106E-03-9.75274E-05-1.12780E-04-1.55175E-03-3.99189E-05-2.42791E-04



 n o d a l   p r i n t   o u t   f o r   t i m e  s t e p   13802                              ( at time 6.8998095E+00 )

 nodal point  x-disp     y-disp      z-disp      x-vel       y-vel       z-vel      x-accl      y-accl      z-accl      x-coor      y-coor      z-coor
    22626 -1.99475E-02 9.88548E-01-5.45157E-01-9.82307E-03 5.32130E-01-1.06056E-02 1.12058E-02 1.75707E-01 8.81795E-02 4.63943E+00-2.72023E+01-4.55269E+01



 n o d a l   p r i n t   o u t   f o r   t i m e  s t e p   13802                              ( at time 6.8998095E+00 )

 nodal point  x-rot      y-rot       z-rot       x-rot vel   y-rot vel   z-rot vel   x-rot acc   y-rot acc   z-rot acc
    22626 -6.15805E-03-1.55191E-04-1.70215E-04-3.90146E-03-8.53942E-05-8.47488E-05-1.50421E-03 1.21344E-04 2.80336E-04



 n o d a l   p r i n t   o u t   f o r   t i m e  s t e p   14002                              ( at time 6.9997995E+00 )

 nodal point  x-disp     y-disp      z-disp      x-vel       y-vel       z-vel      x-accl      y-accl      z-accl      x-coor      y-coor      z-coor
    22626 -2.09324E-02 1.04268E+00-5.45727E-01-1.05117E-02 5.50674E-01-1.03467E-03-6.88733E-03 1.85463E-01 9.57191E-02 4.63844E+00-2.71481E+01-4.55274E+01



 n o d a l   p r i n t   o u t   f o r   t i m e  s t e p   14002                              ( at time 6.9997995E+00 )

 nodal point  x-rot      y-rot       z-rot       x-rot vel   y-rot vel   z-rot vel   x-rot acc   y-rot acc   z-rot acc
    22626 -6.55562E-03-1.63602E-04-1.78387E-04-4.05077E-03-9.53575E-05-9.10321E-05-1.49322E-03-9.96434E-05-6.28398E-05



 n o d a l   p r i n t   o u t   f o r   t i m e  s t e p   14202                              ( at time 7.0997895E+00 )

 nodal point  x-disp     y-disp      z-disp      x-vel       y-vel       z-vel      x-accl      y-accl      z-accl      x-coor      y-coor      z-coor
    22626 -2.20344E-02 1.09865E+00-5.45360E-01-1.12230E-02 5.68446E-01 8.67528E-03-7.11317E-03 1.77733E-01 9.71089E-02 4.63734E+00-2.70922E+01-4.55271E+01



 n o d a l   p r i n t   o u t   f o r   t i m e  s t e p   14202                              ( at time 7.0997895E+00 )

 nodal point  x-rot      y-rot       z-rot       x-rot vel   y-rot vel   z-rot vel   x-rot acc   y-rot acc   z-rot acc
    22626 -6.96844E-03-1.73834E-04-1.88560E-04-4.19447E-03-1.03618E-04-1.02567E-04-1.43712E-03-8.26176E-05-1.15357E-04



 n o d a l   p r i n t   o u t   f o r   t i m e  s t e p   14402                              ( at time 7.1997794E+00 )

 nodal point  x-disp     y-disp      z-disp      x-vel       y-vel       z-vel      x-accl      y-accl      z-accl      x-coor      y-coor      z-coor
    22626 -2.31853E-02 1.15635E+00-5.43987E-01-1.12127E-02 5.85848E-01 1.92135E-02 1.02856E-04 1.74035E-01 1.05393E-01 4.63619E+00-2.70345E+01-4.55257E+01



 n o d a l   p r i n t   o u t   f o r   t i m e  s t e p   14402                              ( at time 7.1997794E+00 )

 nodal point  x-rot      y-rot       z-rot       x-rot vel   y-rot vel   z-rot vel   x-rot acc   y-rot acc   z-rot acc
    22626 -7.39555E-03-1.82936E-04-1.97885E-04-4.34615E-03-8.02016E-05-9.47957E-05-1.51699E-03 2.34193E-04 7.77187E-05



 n o d a l   p r i n t   o u t   f o r   t i m e  s t e p   14602                              ( at time 7.2997694E+00 )

 nodal point  x-disp     y-disp      z-disp      x-vel       y-vel       z-vel      x-accl      y-accl      z-accl      x-coor      y-coor      z-coor
    22626 -2.42950E-02 1.21574E+00-5.41458E-01-1.16151E-02 6.02137E-01 3.14526E-02-4.02428E-03 1.62911E-01 1.22403E-01 4.63508E+00-2.69751E+01-4.55232E+01



 n o d a l   p r i n t   o u t   f o r   t i m e  s t e p   14602                              ( at time 7.2997694E+00 )

 nodal point  x-rot      y-rot       z-rot       x-rot vel   y-rot vel   z-rot vel   x-rot acc   y-rot acc   z-rot acc
    22626 -7.83828E-03-1.91998E-04-2.07798E-04-4.50446E-03-1.11796E-04-1.08368E-04-1.58321E-03-3.15980E-04-1.35735E-04



 n o d a l   p r i n t   o u t   f o r   t i m e  s t e p   14802                              ( at time 7.3997594E+00 )

 nodal point  x-disp     y-disp      z-disp      x-vel       y-vel       z-vel      x-accl      y-accl      z-accl      x-coor      y-coor      z-coor
    22626 -2.54952E-02 1.27685E+00-5.37677E-01-1.24275E-02 6.19310E-01 4.45218E-02-8.12500E-03 1.71748E-01 1.30705E-01 4.63388E+00-2.69140E+01-4.55194E+01



 n o d a l   p r i n t   o u t   f o r   t i m e  s t e p   14802                              ( at time 7.3997594E+00 )

 nodal point  x-rot      y-rot       z-rot       x-rot vel   y-rot vel   z-rot vel   x-rot acc   y-rot acc   z-rot acc
    22626 -8.29685E-03-2.04021E-04-2.19344E-04-4.64996E-03-1.17655E-04-1.21030E-04-1.45511E-03-5.85881E-05-1.26637E-04



 n o d a l   p r i n t   o u t   f o r   t i m e  s t e p   15002                              ( at time 7.4997494E+00 )

 nodal point  x-disp     y-disp      z-disp      x-vel       y-vel       z-vel      x-accl      y-accl      z-accl      x-coor      y-coor      z-coor
    22626 -2.67534E-02 1.33962E+00-5.32556E-01-1.23971E-02 6.36321E-01 5.78689E-02 3.04386E-04 1.70119E-01 1.33484E-01 4.63262E+00-2.68512E+01-4.55143E+01



 n o d a l   p r i n t   o u t   f o r   t i m e  s t e p   15002                              ( at time 7.4997494E+00 )

 nodal point  x-rot      y-rot       z-rot       x-rot vel   y-rot vel   z-rot vel   x-rot acc   y-rot acc   z-rot acc
    22626 -8.76979E-03-2.14462E-04-2.31498E-04-4.79766E-03-9.63066E-05-1.24072E-04-1.47714E-03 2.13501E-04-3.04191E-05



 n o d a l   p r i n t   o u t   f o r   t i m e  s t e p   15202                              ( at time 7.5997394E+00 )

 nodal point  x-disp     y-disp      z-disp      x-vel       y-vel       z-vel      x-accl      y-accl      z-accl      x-coor      y-coor      z-coor
    22626 -2.79718E-02 1.40405E+00-5.26129E-01-1.22781E-02 6.52455E-01 7.09417E-02 1.18985E-03 1.61360E-01 1.30741E-01 4.63140E+00-2.67868E+01-4.55079E+01



 n o d a l   p r i n t   o u t   f o r   t i m e  s t e p   15202                              ( at time 7.5997394E+00 )

 nodal point  x-rot      y-rot       z-rot       x-rot vel   y-rot vel   z-rot vel   x-rot acc   y-rot acc   z-rot acc
    22626 -9.25852E-03-2.25710E-04-2.44430E-04-4.95962E-03-1.31018E-04-1.26708E-04-1.61980E-03-3.47147E-04-2.63646E-05



 n o d a l   p r i n t   o u t   f o r   t i m e  s t e p   15402                              ( at time 7.6997294E+00 )

 nodal point  x-disp     y-disp      z-disp      x-vel       y-vel       z-vel      x-accl      y-accl      z-accl      x-coor      y-coor      z-coor
    22626 -2.92670E-02 1.47019E+00-5.18348E-01-1.32654E-02 6.69953E-01 8.46811E-02-9.87387E-03 1.75000E-01 1.37408E-01 4.63011E+00-2.67206E+01-4.55001E+01



 n o d a l   p r i n t   o u t   f o r   t i m e  s t e p   15402                              ( at time 7.6997294E+00 )

 nodal point  x-rot      y-rot       z-rot       x-rot vel   y-rot vel   z-rot vel   x-rot acc   y-rot acc   z-rot acc
    22626 -9.76350E-03-2.39278E-04-2.58029E-04-5.12391E-03-1.24595E-04-1.38226E-04-1.64306E-03 6.42375E-05-1.15192E-04



 n o d a l   p r i n t   o u t   f o r   t i m e  s t e p   15602                              ( at time 7.7997194E+00 )

 nodal point  x-disp     y-disp      z-disp      x-vel       y-vel       z-vel      x-accl      y-accl      z-accl      x-coor      y-coor      z-coor
    22626 -3.05511E-02 1.53804E+00-5.09152E-01-1.28498E-02 6.86694E-01 9.86541E-02 4.15665E-03 1.67427E-01 1.39744E-01 4.62882E+00-2.66528E+01-4.54909E+01



 n o d a l   p r i n t   o u t   f o r   t i m e  s t e p   15602                              ( at time 7.7997194E+00 )

 nodal point  x-rot      y-rot       z-rot       x-rot vel   y-rot vel   z-rot vel   x-rot acc   y-rot acc   z-rot acc
    22626 -1.02837E-02-2.51037E-04-2.72052E-04-5.27627E-03-1.17004E-04-1.35644E-04-1.52379E-03 7.59096E-05 2.58227E-05



 n o d a l   p r i n t   o u t   f o r   t i m e  s t e p   15802                              ( at time 7.8997094E+00 )

 nodal point  x-disp     y-disp      z-disp      x-vel       y-vel       z-vel      x-accl      y-accl      z-accl      x-coor      y-coor      z-coor
    22626 -3.18663E-02 1.60761E+00-4.98560E-01-1.34675E-02 7.04643E-01 1.13347E-01-6.17761E-03 1.79510E-01 1.46939E-01 4.62751E+00-2.65832E+01-4.54803E+01



 n o d a l   p r i n t   o u t   f o r   t i m e  s t e p   15802                              ( at time 7.8997094E+00 )

 nodal point  x-rot      y-rot       z-rot       x-rot vel   y-rot vel   z-rot vel   x-rot acc   y-rot acc   z-rot acc
    22626 -1.08195E-02-2.63649E-04-2.85795E-04-5.42860E-03-1.32858E-04-1.45220E-04-1.52345E-03-1.58547E-04-9.57659E-05



 n o d a l   p r i n t   o u t   f o r   t i m e  s t e p   16002                              ( at time 7.9996994E+00 )

 nodal point  x-disp     y-disp      z-disp      x-vel       y-vel       z-vel      x-accl      y-accl      z-accl      x-coor      y-coor      z-coor
    22626 -3.32243E-02 1.67894E+00-4.86529E-01-1.36108E-02 7.22125E-01 1.27423E-01-1.43398E-03 1.74834E-01 1.40777E-01 4.62615E+00-2.65119E+01-4.54683E+01



 n o d a l   p r i n t   o u t   f o r   t i m e  s t e p   16002                              ( at time 7.9996994E+00 )

 nodal point  x-rot      y-rot       z-rot       x-rot vel   y-rot vel   z-rot vel   x-rot acc   y-rot acc   z-rot acc
    22626 -1.13705E-02-2.76889E-04-3.00830E-04-5.57904E-03-1.29871E-04-1.53174E-04-1.50458E-03 2.98705E-05-7.95483E-05



 n o d a l   p r i n t   o u t   f o r   t i m e  s t e p   16202                              ( at time 8.0996894E+00 )

 nodal point  x-disp     y-disp      z-disp      x-vel       y-vel       z-vel      x-accl      y-accl      z-accl      x-coor      y-coor      z-coor
    22626 -3.46159E-02 1.75199E+00-4.73066E-01-1.41774E-02 7.39161E-01 1.42416E-01-5.66578E-03 1.70376E-01 1.49943E-01 4.62476E+00-2.64388E+01-4.54548E+01



 n o d a l   p r i n t   o u t   f o r   t i m e  s t e p   16202                              ( at time 8.0996894E+00 )

 nodal point  x-rot      y-rot       z-rot       x-rot vel   y-rot vel   z-rot vel   x-rot acc   y-rot acc   z-rot acc
    22626 -1.19362E-02-2.89845E-04-3.15877E-04-5.72596E-03-1.32830E-04-1.50525E-04-1.46935E-03-2.95974E-05 2.64882E-05



 n o d a l   p r i n t   o u t   f o r   t i m e  s t e p   16402                              ( at time 8.1996794E+00 )

 nodal point  x-disp     y-disp      z-disp      x-vel       y-vel       z-vel      x-accl      y-accl      z-accl      x-coor      y-coor      z-coor
    22626 -3.60324E-02 1.82672E+00-4.58043E-01-1.45412E-02 7.55535E-01 1.58305E-01-3.63833E-03 1.63756E-01 1.58914E-01 4.62334E+00-2.63641E+01-4.54398E+01



 n o d a l   p r i n t   o u t   f o r   t i m e  s t e p   16402                              ( at time 8.1996794E+00 )

 nodal point  x-rot      y-rot       z-rot       x-rot vel   y-rot vel   z-rot vel   x-rot acc   y-rot acc   z-rot acc
    22626 -1.25169E-02-3.03249E-04-3.31389E-04-5.88124E-03-1.35538E-04-1.65095E-04-1.55289E-03-2.70821E-05-1.45712E-04



 n o d a l   p r i n t   o u t   f o r   t i m e  s t e p   16602                              ( at time 8.2996694E+00 )

 nodal point  x-disp     y-disp      z-disp      x-vel       y-vel       z-vel      x-accl      y-accl      z-accl      x-coor      y-coor      z-coor
    22626 -3.74916E-02 1.90309E+00-4.41394E-01-1.46691E-02 7.72118E-01 1.74563E-01-1.27965E-03 1.65843E-01 1.62589E-01 4.62188E+00-2.62877E+01-4.54231E+01



 n o d a l   p r i n t   o u t   f o r   t i m e  s t e p   16602                              ( at time 8.2996694E+00 )

 nodal point  x-rot      y-rot       z-rot       x-rot vel   y-rot vel   z-rot vel   x-rot acc   y-rot acc   z-rot acc
    22626 -1.31120E-02-3.17188E-04-3.48040E-04-6.02087E-03-1.42075E-04-1.63706E-04-1.39648E-03-6.53782E-05 1.38868E-05



 n o d a l   p r i n t   o u t   f o r   t i m e  s t e p   16802                              ( at time 8.3996594E+00 )

 nodal point  x-disp     y-disp      z-disp      x-vel       y-vel       z-vel      x-accl      y-accl      z-accl      x-coor      y-coor      z-coor
    22626 -3.89150E-02 1.98110E+00-4.23121E-01-1.38267E-02 7.88404E-01 1.91122E-01 8.42461E-03 1.62884E-01 1.65606E-01 4.62046E+00-2.62097E+01-4.54048E+01



 n o d a l   p r i n t   o u t   f o r   t i m e  s t e p   16802                              ( at time 8.3996594E+00 )

 nodal point  x-rot      y-rot       z-rot       x-rot vel   y-rot vel   z-rot vel   x-rot acc   y-rot acc   z-rot acc
    22626 -1.37206E-02-3.30794E-04-3.64135E-04-6.14890E-03-1.26563E-04-1.62000E-04-1.28040E-03 1.55138E-04 1.70686E-05



 n o d a l   p r i n t   o u t   f o r   t i m e  s t e p   17002                              ( at time 8.4996494E+00 )

 nodal point  x-disp     y-disp      z-disp      x-vel       y-vel       z-vel      x-accl      y-accl      z-accl      x-coor      y-coor      z-coor
    22626 -4.03171E-02 2.06074E+00-4.03232E-01-1.38949E-02 8.04585E-01 2.07117E-01-6.81993E-04 1.61827E-01 1.59972E-01 4.61906E+00-2.61301E+01-4.53850E+01



 n o d a l   p r i n t   o u t   f o r   t i m e  s t e p   17002                              ( at time 8.4996494E+00 )

 nodal point  x-rot      y-rot       z-rot       x-rot vel   y-rot vel   z-rot vel   x-rot acc   y-rot acc   z-rot acc
    22626 -1.43430E-02-3.44150E-04-3.79892E-04-6.28701E-03-1.41964E-04-1.56831E-04-1.38126E-03-1.54022E-04 5.16916E-05



 n o d a l   p r i n t   o u t   f o r   t i m e  s t e p   17202                              ( at time 8.5996394E+00 )

 nodal point  x-disp     y-disp      z-disp      x-vel       y-vel       z-vel      x-accl      y-accl      z-accl      x-coor      y-coor      z-coor
    22626 -4.17255E-02 2.14200E+00-3.81692E-01-1.43572E-02 8.20401E-01 2.24371E-01-4.62351E-03 1.58170E-01 1.72561E-01 4.61765E+00-2.60488E+01-4.53634E+01



 n o d a l   p r i n t   o u t   f o r   t i m e  s t e p   17202                              ( at time 8.5996394E+00 )

 nodal point  x-rot      y-rot       z-rot       x-rot vel   y-rot vel   z-rot vel   x-rot acc   y-rot acc   z-rot acc
    22626 -1.49789E-02-3.58346E-04-3.95696E-04-6.41535E-03-1.39839E-04-1.57755E-04-1.28355E-03 2.12481E-05-9.23660E-06



 n o d a l   p r i n t   o u t   f o r   t i m e  s t e p   17402                              ( at time 8.6996293E+00 )

 nodal point  x-disp     y-disp      z-disp      x-vel       y-vel       z-vel      x-accl      y-accl      z-accl      x-coor      y-coor      z-coor
    22626 -4.31108E-02 2.22479E+00-3.58415E-01-1.36310E-02 8.35796E-01 2.41459E-01 7.26254E-03 1.53966E-01 1.70893E-01 4.61626E+00-2.59660E+01-4.53401E+01



 n o d a l   p r i n t   o u t   f o r   t i m e  s t e p   17402                              ( at time 8.6996293E+00 )

 nodal point  x-rot      y-rot       z-rot       x-rot vel   y-rot vel   z-rot vel   x-rot acc   y-rot acc   z-rot acc
    22626 -1.56266E-02-3.71076E-04-4.11476E-04-6.53156E-03-1.19101E-04-1.53292E-04-1.16215E-03 2.07403E-04 4.46262E-05



 n o d a l   p r i n t   o u t   f o r   t i m e  s t e p   17602                              ( at time 8.7996193E+00 )

 nodal point  x-disp     y-disp      z-disp      x-vel       y-vel       z-vel      x-accl      y-accl      z-accl      x-coor      y-coor      z-coor
    22626 -4.44832E-02 2.30913E+00-3.33381E-01-1.33903E-02 8.50606E-01 2.59423E-01 2.40761E-03 1.48112E-01 1.79655E-01 4.61489E+00-2.58817E+01-4.53151E+01



 n o d a l   p r i n t   o u t   f o r   t i m e  s t e p   17602                              ( at time 8.7996193E+00 )

 nodal point  x-rot      y-rot       z-rot       x-rot vel   y-rot vel   z-rot vel   x-rot acc   y-rot acc   z-rot acc
    22626 -1.62853E-02-3.83302E-04-4.26069E-04-6.64543E-03-1.25641E-04-1.46431E-04-1.13883E-03-6.54102E-05 6.86148E-05



 n o d a l   p r i n t   o u t   f o r   t i m e  s t e p   17802                              ( at time 8.8996093E+00 )

 nodal point  x-disp     y-disp      z-disp      x-vel       y-vel       z-vel      x-accl      y-accl      z-accl      x-coor      y-coor      z-coor
    22626 -4.58618E-02 2.39484E+00-3.06454E-01-1.44409E-02 8.64044E-01 2.78631E-01-1.05075E-02 1.34395E-01 1.92104E-01 4.61351E+00-2.57960E+01-4.52882E+01



 n o d a l   p r i n t   o u t   f o r   t i m e  s t e p   17802                              ( at time 8.8996093E+00 )

 nodal point  x-rot      y-rot       z-rot       x-rot vel   y-rot vel   z-rot vel   x-rot acc   y-rot acc   z-rot acc
    22626 -1.69547E-02-3.96131E-04-4.40925E-04-6.74854E-03-1.23434E-04-1.50628E-04-1.03119E-03 2.20749E-05-4.19660E-05



 n o d a l   p r i n t   o u t   f o r   t i m e  s t e p   18002                              ( at time 8.9995993E+00 )

 nodal point  x-disp     y-disp      z-disp      x-vel       y-vel       z-vel      x-accl      y-accl      z-accl      x-coor      y-coor      z-coor
    22626 -4.72592E-02 2.48195E+00-2.77645E-01-1.36959E-02 8.78134E-01 2.97755E-01 7.45071E-03 1.40915E-01 1.91252E-01 4.61212E+00-2.57089E+01-4.52594E+01



 n o d a l   p r i n t   o u t   f o r   t i m e  s t e p   18002                              ( at time 8.9995993E+00 )

 nodal point  x-rot      y-rot       z-rot       x-rot vel   y-rot vel   z-rot vel   x-rot acc   y-rot acc   z-rot acc
    22626 -1.76357E-02-4.07830E-04-4.56147E-04-6.86897E-03-1.15712E-04-1.51074E-04-1.20448E-03 7.72275E-05-4.46571E-06



 n o d a l   p r i n t   o u t   f o r   t i m e  s t e p   18202                              ( at time 9.0995893E+00 )

 nodal point  x-disp     y-disp      z-disp      x-vel       y-vel       z-vel      x-accl      y-accl      z-accl      x-coor      y-coor      z-coor
    22626 -4.86040E-02 2.57044E+00-2.46815E-01-1.32380E-02 8.91625E-01 3.18791E-01 4.57984E-03 1.34927E-01 2.10380E-01 4.61077E+00-2.56204E+01-4.52285E+01



 n o d a l   p r i n t   o u t   f o r   t i m e  s t e p   18202                              ( at time 9.0995893E+00 )

 nodal point  x-rot      y-rot       z-rot       x-rot vel   y-rot vel   z-rot vel   x-rot acc   y-rot acc   z-rot acc
    22626 -1.83287E-02-4.19305E-04-4.69809E-04-6.98513E-03-1.10209E-04-1.33443E-04-1.16164E-03 5.50341E-05 1.76330E-04



 n o d a l   p r i n t   o u t   f o r   t i m e  s t e p   18402                              ( at time 9.1995793E+00 )

 nodal point  x-disp     y-disp      z-disp      x-vel       y-vel       z-vel      x-accl      y-accl      z-accl      x-coor      y-coor      z-coor
    22626 -4.99099E-02 2.66024E+00-2.13925E-01-1.30359E-02 9.04865E-01 3.39213E-01 2.02122E-03 1.32415E-01 2.04242E-01 4.60947E+00-2.55306E+01-4.51956E+01



 n o d a l   p r i n t   o u t   f o r   t i m e  s t e p   18402                              ( at time 9.1995793E+00 )

 nodal point  x-rot      y-rot       z-rot       x-rot vel   y-rot vel   z-rot vel   x-rot acc   y-rot acc   z-rot acc
    22626 -1.90325E-02-4.30285E-04-4.82985E-04-7.08600E-03-1.16804E-04-1.37741E-04-1.00880E-03-6.59575E-05-4.29849E-05



 n o d a l   p r i n t   o u t   f o r   t i m e  s t e p   18602                              ( at time 9.2995693E+00 )

 nodal point  x-disp     y-disp      z-disp      x-vel       y-vel       z-vel      x-accl      y-accl      z-accl      x-coor      y-coor      z-coor
    22626 -5.12105E-02 2.75137E+00-1.78950E-01-1.29092E-02 9.18205E-01 3.60598E-01 1.26724E-03 1.33415E-01 2.13874E-01 4.60816E+00-2.54395E+01-4.51607E+01



 n o d a l   p r i n t   o u t   f o r   t i m e  s t e p   18602                              ( at time 9.2995693E+00 )

 nodal point  x-rot      y-rot       z-rot       x-rot vel   y-rot vel   z-rot vel   x-rot acc   y-rot acc   z-rot acc
    22626 -1.97476E-02-4.41568E-04-4.96993E-04-7.21183E-03-1.03178E-04-1.34347E-04-1.25850E-03 1.36272E-04 3.39462E-05



 n o d a l   p r i n t   o u t   f o r   t i m e  s t e p   18802                              ( at time 9.3995593E+00 )

 nodal point  x-disp     y-disp      z-disp      x-vel       y-vel       z-vel      x-accl      y-accl      z-accl      x-coor      y-coor      z-coor
    22626 -5.24577E-02 2.84378E+00-1.41761E-01-1.14134E-02 9.30509E-01 3.83187E-01 1.49597E-02 1.23045E-01 2.25916E-01 4.60692E+00-2.53470E+01-4.51235E+01



 n o d a l   p r i n t   o u t   f o r   t i m e  s t e p   18802                              ( at time 9.3995593E+00 )

 nodal point  x-rot      y-rot       z-rot       x-rot vel   y-rot vel   z-rot vel   x-rot acc   y-rot acc   z-rot acc
    22626 -2.04753E-02-4.51804E-04-5.09580E-04-7.34356E-03-9.95292E-05-1.19509E-04-1.31740E-03 3.64937E-05 1.48391E-04



 n o d a l   p r i n t   o u t   f o r   t i m e  s t e p   19002                              ( at time 9.4995493E+00 )

 nodal point  x-disp     y-disp      z-disp      x-vel       y-vel       z-vel      x-accl      y-accl      z-accl      x-coor      y-coor      z-coor
    22626 -5.36330E-02 2.93746E+00-1.02258E-01-1.26623E-02 9.42997E-01 4.06949E-01-1.24907E-02 1.24892E-01 2.37641E-01 4.60574E+00-2.52534E+01-4.50840E+01



 n o d a l   p r i n t   o u t   f o r   t i m e  s t e p   19002                              ( at time 9.4995493E+00 )

 nodal point  x-rot      y-rot       z-rot       x-rot vel   y-rot vel   z-rot vel   x-rot acc   y-rot acc   z-rot acc
    22626 -2.12168E-02-4.62242E-04-5.21731E-04-7.48967E-03-1.07226E-04-1.21638E-04-1.46126E-03-7.69785E-05-2.12905E-05



 n o d a l   p r i n t   o u t   f o r   t i m e  s t e p   19202                              ( at time 9.5995393E+00 )

 nodal point  x-disp     y-disp      z-disp      x-vel       y-vel       z-vel      x-accl      y-accl      z-accl      x-coor      y-coor      z-coor
    22626 -5.48538E-02 3.03234E+00-6.03341E-02-1.16749E-02 9.54999E-01 4.31308E-01 9.87470E-03 1.20031E-01 2.43612E-01 4.60452E+00-2.51585E+01-4.50421E+01



 n o d a l   p r i n t   o u t   f o r   t i m e  s t e p   19202                              ( at time 9.5995393E+00 )

 nodal point  x-rot      y-rot       z-rot       x-rot vel   y-rot vel   z-rot vel   x-rot acc   y-rot acc   z-rot acc
    22626 -2.19715E-02-4.72581E-04-5.34011E-04-7.61539E-03-9.61990E-05-1.18950E-04-1.25728E-03 1.10283E-04 2.68815E-05



 n o d a l   p r i n t   o u t   f o r   t i m e  s t e p   19402                              ( at time 9.6995293E+00 )

 nodal point  x-disp     y-disp      z-disp      x-vel       y-vel       z-vel      x-accl      y-accl      z-accl      x-coor      y-coor      z-coor
    22626 -5.59953E-02 3.12845E+00-1.59634E-02-1.06856E-02 9.67064E-01 4.56232E-01 9.89440E-03 1.20666E-01 2.49271E-01 4.60338E+00-2.50624E+01-4.49977E+01



 n o d a l   p r i n t   o u t   f o r   t i m e  s t e p   19402                              ( at time 9.6995293E+00 )

 nodal point  x-rot      y-rot       z-rot       x-rot vel   y-rot vel   z-rot vel   x-rot acc   y-rot acc   z-rot acc
    22626 -2.27397E-02-4.81072E-04-5.44802E-04-7.75873E-03-7.19469E-05-9.54583E-05-1.43358E-03 2.42546E-04 2.34942E-04



 n o d a l   p r i n t   o u t   f o r   t i m e  s t e p   19602                              ( at time 9.7995193E+00 )

 nodal point  x-disp     y-disp      z-disp      x-vel       y-vel       z-vel      x-accl      y-accl      z-accl      x-coor      y-coor      z-coor
    22626 -5.70389E-02 3.22577E+00 3.09372E-02-1.04755E-02 9.79295E-01 4.81676E-01 2.10167E-03 1.22319E-01 2.54459E-01 4.60234E+00-2.49651E+01-4.49508E+01



 n o d a l   p r i n t   o u t   f o r   t i m e  s t e p   19602                              ( at time 9.7995193E+00 )

 nodal point  x-rot      y-rot       z-rot       x-rot vel   y-rot vel   z-rot vel   x-rot acc   y-rot acc   z-rot acc
    22626 -2.35241E-02-4.88490E-04-5.53549E-04-7.92645E-03-7.83264E-05-8.12982E-05-1.67735E-03-6.38020E-05 1.41615E-04



 n o d a l   p r i n t   o u t   f o r   t i m e  s t e p   19802                              ( at time 9.8995093E+00 )

 nodal point  x-disp     y-disp      z-disp      x-vel       y-vel       z-vel      x-accl      y-accl      z-accl      x-coor      y-coor      z-coor
    22626 -5.80917E-02 3.32425E+00 8.03897E-02-1.06437E-02 9.90647E-01 5.07541E-01-1.68238E-03 1.13538E-01 2.58677E-01 4.60128E+00-2.48666E+01-4.49013E+01



 n o d a l   p r i n t   o u t   f o r   t i m e  s t e p   19802                              ( at time 9.8995093E+00 )

 nodal point  x-rot      y-rot       z-rot       x-rot vel   y-rot vel   z-rot vel   x-rot acc   y-rot acc   z-rot acc
    22626 -2.43234E-02-4.96323E-04-5.62148E-04-8.06760E-03-7.29050E-05-9.13655E-05-1.41170E-03 5.42195E-05-1.00683E-04



 n o d a l   p r i n t   o u t   f o r   t i m e  s t e p   20003                              ( at time 9.9999992E+00 )

 nodal point  x-disp     y-disp      z-disp      x-vel       y-vel       z-vel      x-accl      y-accl      z-accl      x-coor      y-coor      z-coor
[...]
    22626 -2.00733E-01-4.74506E-04-6.73975E-04-1.73388E-02-9.97913E-06 3.63916E-05-1.80339E-04-1.03042E-04-1.20280E-04



 n o d a l   p r i n t   o u t   f o r   t i m e  s t e p   45205                              ( at time 2.2599738E+01 )

 nodal point  x-disp     y-disp      z-disp      x-vel       y-vel       z-vel      x-accl      y-accl      z-accl      x-coor      y-coor      z-coor
    22626 -1.48521E-01 2.03877E+01 1.75254E+01-8.98931E-03 1.65295E+00 8.71917E-01-2.66044E-03 2.13714E-02-1.16026E-01 4.51085E+00-7.80313E+00-2.74563E+01



 n o d a l   p r i n t   o u t   f o r   t i m e  s t e p   45205                              ( at time 2.2599738E+01 )

 nodal point  x-rot      y-rot       z-rot       x-rot vel   y-rot vel   z-rot vel   x-rot acc   y-rot acc   z-rot acc
    22626 -2.02467E-01-4.76238E-04-6.70206E-04-1.73501E-02-1.18784E-05 4.72732E-05-1.13222E-04-1.89940E-05 1.08825E-04



 n o d a l   p r i n t   o u t   f o r   t i m e  s t e p   45405                              ( at time 2.2699728E+01 )

 nodal point  x-disp     y-disp      z-disp      x-vel       y-vel       z-vel      x-accl      y-accl      z-accl      x-coor      y-coor      z-coor
    22626 -1.49420E-01 2.05531E+01 1.76121E+01-8.66424E-03 1.65548E+00 8.61268E-01 3.25113E-03 2.53050E-02-1.06500E-01 4.50995E+00-7.63777E+00-2.73696E+01



 n o d a l   p r i n t   o u t   f o r   t i m e  s t e p   45405                              ( at time 2.2699728E+01 )

 nodal point  x-rot      y-rot       z-rot       x-rot vel   y-rot vel   z-rot vel   x-rot acc   y-rot acc   z-rot acc
    22626 -2.04201E-01-4.77748E-04-6.65858E-04-1.73430E-02-2.05110E-05 4.02171E-05 7.14217E-05-8.63357E-05-7.05684E-05



 n o d a l   p r i n t   o u t   f o r   t i m e  s t e p   45605                              ( at time 2.2799718E+01 )

 nodal point  x-disp     y-disp      z-disp      x-vel       y-vel       z-vel      x-accl      y-accl      z-accl      x-coor      y-coor      z-coor
    22626 -1.50275E-01 2.07187E+01 1.76976E+01-8.86416E-03 1.65777E+00 8.51226E-01-1.99945E-03 2.28772E-02-1.00431E-01 4.50910E+00-7.47209E+00-2.72841E+01



 n o d a l   p r i n t   o u t   f o r   t i m e  s t e p   45605                              ( at time 2.2799718E+01 )

 nodal point  x-rot      y-rot       z-rot       x-rot vel   y-rot vel   z-rot vel   x-rot acc   y-rot acc   z-rot acc
    22626 -2.05934E-01-4.80726E-04-6.62576E-04-1.73425E-02-1.45270E-05 3.52732E-05 5.12274E-06 5.98451E-05-4.94436E-05



 n o d a l   p r i n t   o u t   f o r   t i m e  s t e p   45805                              ( at time 2.2899708E+01 )

 nodal point  x-disp     y-disp      z-disp      x-vel       y-vel       z-vel      x-accl      y-accl      z-accl      x-coor      y-coor      z-coor
    22626 -1.51167E-01 2.08846E+01 1.77823E+01-9.15136E-03 1.65914E+00 8.42073E-01-2.87228E-03 1.36784E-02-9.15408E-02 4.50821E+00-7.30623E+00-2.71994E+01



 n o d a l   p r i n t   o u t   f o r   t i m e  s t e p   45805                              ( at time 2.2899708E+01 )

 nodal point  x-rot      y-rot       z-rot       x-rot vel   y-rot vel   z-rot vel   x-rot acc   y-rot acc   z-rot acc
    22626 -2.07668E-01-4.82017E-04-6.59507E-04-1.73513E-02-2.68541E-05 3.32942E-05-8.79266E-05-1.23284E-04-1.97919E-05



 n o d a l   p r i n t   o u t   f o r   t i m e  s t e p   46005                              ( at time 2.2999698E+01 )

 nodal point  x-disp     y-disp      z-disp      x-vel       y-vel       z-vel      x-accl      y-accl      z-accl      x-coor      y-coor      z-coor
    22626 -1.52087E-01 2.10506E+01 1.78661E+01-9.36154E-03 1.66125E+00 8.33566E-01-2.10195E-03 2.11079E-02-8.50797E-02 4.50729E+00-7.14019E+00-2.71156E+01



 n o d a l   p r i n t   o u t   f o r   t i m e  s t e p   46005                              ( at time 2.2999698E+01 )

 nodal point  x-rot      y-rot       z-rot       x-rot vel   y-rot vel   z-rot vel   x-rot acc   y-rot acc   z-rot acc
    22626 -2.09401E-01-4.85552E-04-6.56635E-04-1.73295E-02-3.35391E-05 2.76291E-05 2.17484E-04-6.68567E-05-5.66563E-05



 n o d a l   p r i n t   o u t   f o r   t i m e  s t e p   46205                              ( at time 2.3099688E+01 )

 nodal point  x-disp     y-disp      z-disp      x-vel       y-vel       z-vel      x-accl      y-accl      z-accl      x-coor      y-coor      z-coor
    22626 -1.53040E-01 2.12169E+01 1.79490E+01-8.54916E-03 1.66379E+00 8.25516E-01 8.12465E-03 2.54218E-02-8.05103E-02 4.50634E+00-6.97393E+00-2.70327E+01



 n o d a l   p r i n t   o u t   f o r   t i m e  s t e p   46205                              ( at time 2.3099688E+01 )

 nodal point  x-rot      y-rot       z-rot       x-rot vel   y-rot vel   z-rot vel   x-rot acc   y-rot acc   z-rot acc
    22626 -2.11132E-01-4.87749E-04-6.53595E-04-1.73142E-02-1.62181E-05 2.98749E-05 1.53592E-04 1.73230E-04 2.24603E-05



 n o d a l   p r i n t   o u t   f o r   t i m e  s t e p   46405                              ( at time 2.3199678E+01 )

 nodal point  x-disp     y-disp      z-disp      x-vel       y-vel       z-vel      x-accl      y-accl      z-accl      x-coor      y-coor      z-coor
    22626 -1.53932E-01 2.13833E+01 1.80312E+01-9.75236E-03 1.66526E+00 8.18356E-01-1.20331E-02 1.47356E-02-7.16066E-02 4.50544E+00-6.80754E+00-2.69505E+01



 n o d a l   p r i n t   o u t   f o r   t i m e  s t e p   46405                              ( at time 2.3199678E+01 )

 nodal point  x-rot      y-rot       z-rot       x-rot vel   y-rot vel   z-rot vel   x-rot acc   y-rot acc   z-rot acc
    22626 -2.12862E-01-4.89861E-04-6.51552E-04-1.73045E-02-2.68216E-05 2.99190E-05 9.65684E-05-1.06044E-04 4.41291E-07



 n o d a l   p r i n t   o u t   f o r   t i m e  s t e p   46605                              ( at time 2.3299668E+01 )

 nodal point  x-disp     y-disp      z-disp      x-vel       y-vel       z-vel      x-accl      y-accl      z-accl      x-coor      y-coor      z-coor
    22626 -1.54868E-01 2.15498E+01 1.81128E+01-9.28054E-03 1.66636E+00 8.13175E-01 4.71875E-03 1.10114E-02-5.18153E-02 4.50451E+00-6.64101E+00-2.68689E+01



 n o d a l   p r i n t   o u t   f o r   t i m e  s t e p   46605                              ( at time 2.3299668E+01 )

 nodal point  x-rot      y-rot       z-rot       x-rot vel   y-rot vel   z-rot vel   x-rot acc   y-rot acc   z-rot acc
    22626 -2.14589E-01-4.92906E-04-6.49025E-04-1.72661E-02-3.35340E-05 1.88787E-05 3.84269E-04-6.71318E-05-1.10416E-04



 n o d a l   p r i n t   o u t   f o r   t i m e  s t e p   46805                              ( at time 2.3399658E+01 )

 nodal point  x-disp     y-disp      z-disp      x-vel       y-vel       z-vel      x-accl      y-accl      z-accl      x-coor      y-coor      z-coor
    22626 -1.55800E-01 2.17165E+01 1.81938E+01-9.15220E-03 1.66735E+00 8.07987E-01 1.28352E-03 9.83090E-03-5.18870E-02 4.50357E+00-6.47433E+00-2.67879E+01



 n o d a l   p r i n t   o u t   f o r   t i m e  s t e p   46805                              ( at time 2.3399658E+01 )

 nodal point  x-rot      y-rot       z-rot       x-rot vel   y-rot vel   z-rot vel   x-rot acc   y-rot acc   z-rot acc
    22626 -2.16314E-01-4.96678E-04-6.46803E-04-1.72353E-02-3.59567E-05 1.41306E-05 3.07625E-04-2.42291E-05-4.74853E-05



 n o d a l   p r i n t   o u t   f o r   t i m e  s t e p   47005                              ( at time 2.3499648E+01 )

 nodal point  x-disp     y-disp      z-disp      x-vel       y-vel       z-vel      x-accl      y-accl      z-accl      x-coor      y-coor      z-coor
    22626 -1.56637E-01 2.18832E+01 1.82743E+01-8.54788E-03 1.66746E+00 8.02204E-01 6.04374E-03 1.10159E-03-5.78266E-02 4.50274E+00-6.30761E+00-2.67075E+01



 n o d a l   p r i n t   o u t   f o r   t i m e  s t e p   47005                              ( at time 2.3499648E+01 )

 nodal point  x-rot      y-rot       z-rot       x-rot vel   y-rot vel   z-rot vel   x-rot acc   y-rot acc   z-rot acc
    22626 -2.18036E-01-4.99755E-04-6.44815E-04-1.72106E-02-2.47289E-05 2.29332E-05 2.47177E-04 1.12288E-04 8.80342E-05



 n o d a l   p r i n t   o u t   f o r   t i m e  s t e p   47205                              ( at time 2.3599638E+01 )

 nodal point  x-disp     y-disp      z-disp      x-vel       y-vel       z-vel      x-accl      y-accl      z-accl      x-coor      y-coor      z-coor
    22626 -1.57499E-01 2.20500E+01 1.83543E+01-8.26910E-03 1.66847E+00 7.99000E-01 2.78815E-03 1.01244E-02-3.20434E-02 4.50188E+00-6.14081E+00-2.66274E+01



 n o d a l   p r i n t   o u t   f o r   t i m e  s t e p   47205                              ( at time 2.3599638E+01 )

 nodal point  x-rot      y-rot       z-rot       x-rot vel   y-rot vel   z-rot vel   x-rot acc   y-rot acc   z-rot acc
    22626 -2.19755E-01-5.03457E-04-6.43053E-04-1.71762E-02-4.76074E-05 9.07368E-06 3.43975E-04-2.28810E-04-1.38610E-04



 n o d a l   p r i n t   o u t   f o r   t i m e  s t e p   47405                              ( at time 2.3699628E+01 )

 nodal point  x-disp     y-disp      z-disp      x-vel       y-vel       z-vel      x-accl      y-accl      z-accl      x-coor      y-coor      z-coor
    22626 -1.58371E-01 2.22168E+01 1.84341E+01-9.45311E-03 1.66792E+00 7.95904E-01-1.18412E-02-5.49009E-03-3.09680E-02 4.50100E+00-5.97399E+00-2.65476E+01



 n o d a l   p r i n t   o u t   f o r   t i m e  s t e p   47405                              ( at time 2.3699628E+01 )

 nodal point  x-rot      y-rot       z-rot       x-rot vel   y-rot vel   z-rot vel   x-rot acc   y-rot acc   z-rot acc
    22626 -2.21470E-01-5.08569E-04-6.41244E-04-1.71358E-02-4.03919E-05 1.88452E-05 4.04194E-04 7.21610E-05 9.77246E-05



 n o d a l   p r i n t   o u t   f o r   t i m e  s t e p   47605                              ( at time 2.3799618E+01 )

 nodal point  x-disp     y-disp      z-disp      x-vel       y-vel       z-vel      x-accl      y-accl      z-accl      x-coor      y-coor      z-coor
    22626 -1.59220E-01 2.23836E+01 1.85135E+01-8.16434E-03 1.66853E+00 7.93796E-01 1.28891E-02 6.13638E-03-2.10839E-02 4.50015E+00-5.80720E+00-2.64682E+01



 n o d a l   p r i n t   o u t   f o r   t i m e  s t e p   47605                              ( at time 2.3799618E+01 )

 nodal point  x-rot      y-rot       z-rot       x-rot vel   y-rot vel   z-rot vel   x-rot acc   y-rot acc   z-rot acc
    22626 -2.23181E-01-5.12493E-04-6.39845E-04-1.70971E-02-4.42275E-05 1.68873E-05 3.86858E-04-3.83604E-05-1.95819E-05



 n o d a l   p r i n t   o u t   f o r   t i m e  s t e p   47805                              ( at time 2.3899608E+01 )

 nodal point  x-disp     y-disp      z-disp      x-vel       y-vel       z-vel      x-accl      y-accl      z-accl      x-coor      y-coor      z-coor
    22626 -1.59988E-01 2.25504E+01 1.85929E+01-7.64188E-03 1.66694E+00 7.92258E-01 5.22510E-03-1.58992E-02-1.53764E-02 4.49939E+00-5.64046E+00-2.63889E+01



 n o d a l   p r i n t   o u t   f o r   t i m e  s t e p   47805                              ( at time 2.3899608E+01 )

 nodal point  x-rot      y-rot       z-rot       x-rot vel   y-rot vel   z-rot vel   x-rot acc   y-rot acc   z-rot acc
    22626 -2.24889E-01-5.17279E-04-6.38162E-04-1.70647E-02-4.45324E-05 1.33973E-05 3.24093E-04-3.04883E-06-3.49033E-05



 n o d a l   p r i n t   o u t   f o r   t i m e  s t e p   48005                              ( at time 2.3999598E+01 )

 nodal point  x-disp     y-disp      z-disp      x-vel       y-vel       z-vel      x-accl      y-accl      z-accl      x-coor      y-coor      z-coor
    22626 -1.60846E-01 2.27170E+01 1.86720E+01-8.45234E-03 1.66606E+00 7.91471E-01-8.10543E-03-8.84869E-03-7.87643E-03 4.49853E+00-5.47379E+00-2.63097E+01



 n o d a l   p r i n t   o u t   f o r   t i m e  s t e p   48005                              ( at time 2.3999598E+01 )

 nodal point  x-rot      y-rot       z-rot       x-rot vel   y-rot vel   z-rot vel   x-rot acc   y-rot acc   z-rot acc
    22626 -2.26593E-01-5.22326E-04-6.36524E-04-1.70261E-02-5.79296E-05 9.01979E-06 3.86486E-04-1.33986E-04-4.37796E-05



 n o d a l   p r i n t   o u t   f o r   t i m e  s t e p   48205                              ( at time 2.4099588E+01 )

 nodal point  x-disp     y-disp      z-disp      x-vel       y-vel       z-vel      x-accl      y-accl      z-accl      x-coor      y-coor      z-coor
    22626 -1.61633E-01 2.28836E+01 1.87511E+01-8.35365E-03 1.66495E+00 7.90852E-01 9.86976E-04-1.10636E-02-6.18455E-03 4.49774E+00-5.30725E+00-2.62306E+01



 n o d a l   p r i n t   o u t   f o r   t i m e  s t e p   48205                              ( at time 2.4099588E+01 )

 nodal point  x-rot      y-rot       z-rot       x-rot vel   y-rot vel   z-rot vel   x-rot acc   y-rot acc   z-rot acc
    22626 -2.28293E-01-5.28135E-04-6.35697E-04-1.69716E-02-5.83072E-05 1.71090E-05 5.45041E-04-3.77682E-06 8.08996E-05



 n o d a l   p r i n t   o u t   f o r   t i m e  s t e p   48405                              ( at time 2.4199578E+01 )

 nodal point  x-disp     y-disp      z-disp      x-vel       y-vel       z-vel      x-accl      y-accl      z-accl      x-coor      y-coor      z-coor
    22626 -1.62413E-01 2.30500E+01 1.88302E+01-7.31575E-03 1.66402E+00 7.91669E-01 1.03802E-02-9.30055E-03 8.17211E-03 4.49696E+00-5.14085E+00-2.61516E+01



 n o d a l   p r i n t   o u t   f o r   t i m e  s t e p   48405                              ( at time 2.4199578E+01 )

 nodal point  x-rot      y-rot       z-rot       x-rot vel   y-rot vel   z-rot vel   x-rot acc   y-rot acc   z-rot acc
    22626 -2.29988E-01-5.32839E-04-6.34246E-04-1.69331E-02-4.24020E-05 9.87821E-06 3.85107E-04 1.59070E-04-7.23160E-05



 n o d a l   p r i n t   o u t   f o r   t i m e  s t e p   48605                              ( at time 2.4299568E+01 )

 nodal point  x-disp     y-disp      z-disp      x-vel       y-vel       z-vel      x-accl      y-accl      z-accl      x-coor      y-coor      z-coor
    22626 -1.63183E-01 2.32162E+01 1.89094E+01-7.61434E-03 1.66179E+00 7.92779E-01-2.98622E-03-2.23621E-02 1.10928E-02 4.49619E+00-4.97464E+00-2.60723E+01



 n o d a l   p r i n t   o u t   f o r   t i m e  s t e p   48605                              ( at time 2.4299568E+01 )

 nodal point  x-rot      y-rot       z-rot       x-rot vel   y-rot vel   z-rot vel   x-rot acc   y-rot acc   z-rot acc
    22626 -2.31680E-01-5.38819E-04-6.33546E-04-1.68912E-02-6.69227E-05 8.15797E-06 4.18277E-04-2.45229E-04-1.72040E-05



 n o d a l   p r i n t   o u t   f o r   t i m e  s t e p   48805                              ( at time 2.4399558E+01 )

 nodal point  x-disp     y-disp      z-disp      x-vel       y-vel       z-vel      x-accl      y-accl      z-accl      x-coor      y-coor      z-coor
    22626 -1.63958E-01 2.33822E+01 1.89886E+01-7.87792E-03 1.65914E+00 7.93509E-01-2.63606E-03-2.64836E-02 7.30045E-03 4.49542E+00-4.80862E+00-2.59931E+01



 n o d a l   p r i n t   o u t   f o r   t i m e  s t e p   48805                              ( at time 2.4399558E+01 )

 nodal point  x-rot      y-rot       z-rot       x-rot vel   y-rot vel   z-rot vel   x-rot acc   y-rot acc   z-rot acc
    22626 -2.33366E-01-5.45315E-04-6.32696E-04-1.68317E-02-5.90904E-05 1.01474E-05 5.95374E-04 7.83301E-05 1.98959E-05



 n o d a l   p r i n t   o u t   f o r   t i m e  s t e p   49006                              ( at time 2.4500048E+01 )

 nodal point  x-disp     y-disp      z-disp      x-vel       y-vel       z-vel      x-accl      y-accl      z-accl      x-coor      y-coor      z-coor
    22626 -1.64697E-01 2.35488E+01 1.90686E+01-6.91921E-03 1.65600E+00 7.96756E-01 9.54054E-03-3.12565E-02 3.23135E-02 4.49468E+00-4.64205E+00-2.59132E+01



 n o d a l   p r i n t   o u t   f o r   t i m e  s t e p   49006                              ( at time 2.4500048E+01 )

 nodal point  x-rot      y-rot       z-rot       x-rot vel   y-rot vel   z-rot vel   x-rot acc   y-rot acc   z-rot acc
    22626 -2.35056E-01-5.51385E-04-6.32222E-04-1.68028E-02-6.47957E-05 1.68404E-06 2.87732E-04-5.67755E-05-8.42219E-05



 n o d a l   p r i n t   o u t   f o r   t i m e  s t e p   49206                              ( at time 2.4600038E+01 )

 nodal point  x-disp     y-disp      z-disp      x-vel       y-vel       z-vel      x-accl      y-accl      z-accl      x-coor      y-coor      z-coor
    22626 -1.65419E-01 2.37143E+01 1.91484E+01-7.48275E-03 1.65308E+00 8.00069E-01-5.63598E-03-2.91803E-02 3.31373E-02 4.49396E+00-4.47658E+00-2.58333E+01



 n o d a l   p r i n t   o u t   f o r   t i m e  s t e p   49206                              ( at time 2.4600038E+01 )

 nodal point  x-rot      y-rot       z-rot       x-rot vel   y-rot vel   z-rot vel   x-rot acc   y-rot acc   z-rot acc
    22626 -2.36733E-01-5.57533E-04-6.31421E-04-1.67460E-02-6.43985E-05 7.35832E-06 5.68308E-04 3.97253E-06 5.67480E-05



 n o d a l   p r i n t   o u t   f o r   t i m e  s t e p   49406                              ( at time 2.4700028E+01 )

 nodal point  x-disp     y-disp      z-disp      x-vel       y-vel       z-vel      x-accl      y-accl      z-accl      x-coor      y-coor      z-coor
    22626 -1.66153E-01 2.38794E+01 1.92285E+01-6.81457E-03 1.64998E+00 8.03580E-01 6.68251E-03-3.09561E-02 3.51086E-02 4.49322E+00-4.31144E+00-2.57532E+01



 n o d a l   p r i n t   o u t   f o r   t i m e  s t e p   49406                              ( at time 2.4700028E+01 )

 nodal point  x-rot      y-rot       z-rot       x-rot vel   y-rot vel   z-rot vel   x-rot acc   y-rot acc   z-rot acc
    22626 -2.38405E-01-5.64620E-04-6.31098E-04-1.66908E-02-7.60301E-05 3.65784E-06 5.51795E-04-1.16329E-04-3.70088E-05



 n o d a l   p r i n t   o u t   f o r   t i m e  s t e p   49606                              ( at time 2.4800018E+01 )

 nodal point  x-disp     y-disp      z-disp      x-vel       y-vel       z-vel      x-accl      y-accl      z-accl      x-coor      y-coor      z-coor
    22626 -1.66846E-01 2.40442E+01 1.93091E+01-6.96527E-03 1.64611E+00 8.08290E-01-1.50710E-03-3.87788E-02 4.71045E-02 4.49253E+00-4.14664E+00-2.56726E+01



 n o d a l   p r i n t   o u t   f o r   t i m e  s t e p   49606                              ( at time 2.4800018E+01 )

 nodal point  x-rot      y-rot       z-rot       x-rot vel   y-rot vel   z-rot vel   x-rot acc   y-rot acc   z-rot acc
    22626 -2.40072E-01-5.72057E-04-6.31054E-04-1.66414E-02-6.58092E-05 5.10059E-06 4.93832E-04 1.02218E-04 1.44288E-05



 n o d a l   p r i n t   o u t   f o r   t i m e  s t e p   49806                              ( at time 2.4900008E+01 )

 nodal point  x-disp     y-disp      z-disp      x-vel       y-vel       z-vel      x-accl      y-accl      z-accl      x-coor      y-coor      z-coor
    22626 -1.67505E-01 2.42086E+01 1.93901E+01-6.36785E-03 1.64263E+00 8.13316E-01 5.97489E-03-3.47307E-02 5.02666E-02 4.49187E+00-3.98225E+00-2.55916E+01



 n o d a l   p r i n t   o u t   f o r   t i m e  s t e p   49806                              ( at time 2.4900008E+01 )

 nodal point  x-rot      y-rot       z-rot       x-rot vel   y-rot vel   z-rot vel   x-rot acc   y-rot acc   z-rot acc
    22626 -2.41735E-01-5.78727E-04-6.30443E-04-1.65898E-02-7.78469E-05 1.59098E-06 5.15879E-04-1.20390E-04-3.50999E-05



 n o d a l   p r i n t   o u t   f o r   t i m e  s t e p   50006                              ( at time 2.4999998E+01 )

 nodal point  x-disp     y-disp      z-disp      x-vel       y-vel       z-vel      x-accl      y-accl      z-accl      x-coor      y-coor      z-coor
    22626 -1.68174E-01 2.43726E+01 1.94717E+01-7.26528E-03 1.63836E+00 8.18941E-01-8.97516E-03-4.27524E-02 5.62529E-02 4.49120E+00-3.81823E+00-2.55100E+01



 n o d a l   p r i n t   o u t   f o r   t i m e  s t e p   50006                              ( at time 2.4999998E+01 )

 nodal point  x-rot      y-rot       z-rot       x-rot vel   y-rot vel   z-rot vel   x-rot acc   y-rot acc   z-rot acc
    22626 -2.43391E-01-5.86286E-04-6.30374E-04-1.65410E-02-7.78651E-05-2.85916E-06 4.88617E-04-1.81552E-07-4.45055E-05
