 LSTC 50th% Full_FE H-III Dummy (Beta Version, February 17, 2019)        
                    ls-dyna smp s R16 R16.0_619_d222963 date 03/18/2025

{BEGIN LEGEND}
 Entity #        Title
        1     Upper_Neck_Force_INJURY                                              
{END LEGEND}



 line#1  section#     time        x-force     y-force     z-force    magnitude
 line#2  resultant  moments       x-moment    y-moment    z-moment   magnitude
 line#3  centroids                x           y           z            area  
           1    0.00000E+00     0.0000E+00  0.0000E+00  0.0000E+00  0.0000E+00
ac ID =   33377                 0.0000E+00  0.0000E+00  0.0000E+00  0.0000E+00
                               -3.7437E-01  1.0501E+01 -4.6940E+01  0.0000E+00

           1    1.00490E-01     1.3621E-04 -4.9880E-03  2.5983E-01  2.5988E-01
ac ID =   33377                 4.2544E-01 -1.2521E+00 -2.7100E-02  1.3227E+00
                               -3.7387E-01  1.0590E+01 -4.6886E+01  2.5147E+03

           1    2.00480E-01    -4.4273E-02  5.7931E-04  4.4135E-01  4.4357E-01
ac ID =   33377                 3.0759E-01 -1.5968E+00  2.0467E-02  1.6263E+00
                               -3.7386E-01  1.0591E+01 -4.6888E+01  2.5147E+03

           1    3.00470E-01     1.4597E-02 -3.3345E-03  2.1745E-01  2.1796E-01
ac ID =   33377                 2.7053E-02 -3.3750E-01  6.6341E-02  3.4502E-01
                               -3.7382E-01  1.0591E+01 -4.6889E+01  2.5147E+03

           1    4.00460E-01     3.2043E-03  1.0701E-02  8.8178E-02  8.8883E-02
ac ID =   33377                -4.9897E-01 -9.4659E-01 -5.4407E-04  1.0700E+00
                               -3.7383E-01  1.0592E+01 -4.6890E+01  2.5147E+03

           1    5.00450E-01    -4.0815E-02  4.1088E-03  1.6161E-01  1.6674E-01
ac ID =   33377                -3.9517E-01 -1.5061E+00 -1.1076E-01  1.5610E+00
                               -3.7385E-01  1.0594E+01 -4.6893E+01  2.5147E+03

           1    6.00440E-01    -1.0811E-02  3.8348E-03  3.4356E-01  3.4375E-01
ac ID =   33377                 9.4103E-02 -1.3261E+00 -3.5528E-02  1.3299E+00
                               -3.7385E-01  1.0595E+01 -4.6897E+01  2.5147E+03

           1    7.00430E-01     2.7481E-03 -5.2952E-03  2.9462E-01  2.9469E-01
ac ID =   33377                 1.3679E-01 -5.0246E-01  8.0037E-02  5.2686E-01
                               -3.7389E-01  1.0597E+01 -4.6901E+01  2.5147E+03

           1    8.00420E-01    -3.0846E-02 -9.6110E-04  1.0039E-01  1.0503E-01
ac ID =   33377                 8.8267E-02 -1.0579E+00  4.7830E-02  1.0626E+00
                               -3.7394E-01  1.0599E+01 -4.6905E+01  2.5147E+03

           1    9.00410E-01    -3.9260E-02  7.8888E-04  6.2365E-02  7.3698E-02
ac ID =   33377                 9.0323E-02 -1.0738E+00 -5.9015E-03  1.0776E+00
                               -3.7399E-01  1.0601E+01 -4.6909E+01  2.5147E+03

           1    1.00040E+00     1.4778E-02 -3.8706E-03  2.2045E-01  2.2098E-01
ac ID =   33377                 3.6804E-01 -2.9255E-01 -5.7508E-02  4.7366E-01
                               -3.7400E-01  1.0604E+01 -4.6915E+01  2.5147E+03

           1    1.10039E+00    -8.8811E-06 -3.1651E-03  2.7101E-01  2.7103E-01
ac ID =   33377                 3.4512E-01 -8.8250E-01 -5.3650E-02  9.4910E-01
                               -3.7401E-01  1.0607E+01 -4.6921E+01  2.5147E+03

           1    1.20038E+00    -3.2671E-02 -4.0635E-04  1.2922E-01  1.3329E-01
ac ID =   33377                -1.5787E-01 -1.1836E+00  7.0298E-03  1.1941E+00
                               -3.7403E-01  1.0610E+01 -4.6927E+01  2.5147E+03

           1    1.30037E+00    -1.0274E-02  4.5103E-03  7.4749E-02  7.5587E-02
ac ID =   33377                -3.0199E-01 -8.8108E-01  1.9119E-02  9.3159E-01
                               -3.7407E-01  1.0612E+01 -4.6933E+01  2.5147E+03

           1    1.40036E+00     8.0124E-03  3.6268E-03  1.7340E-01  1.7363E-01
ac ID =   33377                -2.9331E-01 -8.3763E-01  2.8414E-02  8.8795E-01
                               -3.7409E-01  1.0616E+01 -4.6941E+01  2.5147E+03

           1    1.50035E+00    -2.7057E-02  1.3461E-03  3.2866E-01  3.2977E-01
ac ID =   33377                -1.9472E-02 -1.5825E+00 -4.3972E-02  1.5832E+00
                               -3.7413E-01  1.0620E+01 -4.6949E+01  2.5147E+03

           1    1.60034E+00    -1.9319E-02 -2.5414E-03  2.2126E-01  2.2212E-01
ac ID =   33377                -1.8939E-02 -1.3738E+00 -1.3176E-02  1.3740E+00
                               -3.7420E-01  1.0624E+01 -4.6957E+01  2.5147E+03

           1    1.70033E+00    -2.9288E-03 -4.9695E-04  5.8397E-02  5.8472E-02
ac ID =   33377                -4.2298E-02 -6.6085E-01  8.4621E-02  6.6759E-01
                               -3.7427E-01  1.0627E+01 -4.6965E+01  2.5147E+03

           1    1.80032E+00    -2.0031E-02  1.0590E-03  7.7884E-02  8.0425E-02
ac ID =   33377                 8.4896E-02 -1.1172E+00  1.2294E-01  1.1272E+00
                               -3.7434E-01  1.0632E+01 -4.6974E+01  2.5147E+03

           1    1.90031E+00    -7.6176E-03 -2.4702E-03  1.9108E-01  1.9124E-01
ac ID =   33377                 2.6776E-01 -8.2616E-01 -7.4792E-02  8.7168E-01
                               -3.7439E-01  1.0636E+01 -4.6984E+01  2.5147E+03

           1    2.00030E+00    -1.8219E-03 -4.2662E-03  1.5630E-01  1.5637E-01
ac ID =   33377                 2.0830E-01 -4.4565E-01 -1.4580E-01  5.1308E-01
                               -3.7444E-01  1.0641E+01 -4.6993E+01  2.5147E+03

           1    2.10029E+00    -2.5230E-02  2.6211E-03  3.2240E-03  2.5570E-02
ac ID =   33377                -7.2471E-02 -6.9298E-01  4.2456E-02  6.9806E-01
                               -3.7450E-01  1.0645E+01 -4.7003E+01  2.5147E+03

           1    2.20028E+00    -1.3057E-02  5.2115E-03  3.2427E-03  1.4428E-02
ac ID =   33377                -2.3842E-01 -6.5864E-01  2.4602E-02  7.0090E-01
                               -3.7456E-01  1.0650E+01 -4.7013E+01  2.5147E+03

           1    2.30027E+00     1.4624E-03  4.8394E-03  1.4857E-01  1.4865E-01
ac ID =   33377                -1.4454E-01 -8.1282E-01 -6.5677E-02  8.2818E-01
                               -3.7461E-01  1.0655E+01 -4.7024E+01  2.5147E+03

           1    2.40026E+00    -1.7296E-02 -1.8642E-03  1.8909E-01  1.8989E-01
ac ID =   33377                -1.5048E-01 -1.1859E+00  7.1521E-02  1.1975E+00
                               -3.7469E-01  1.0661E+01 -4.7035E+01  2.5147E+03

           1    2.50025E+00    -1.8474E-02  1.2980E-03  9.3840E-06  1.8519E-02
ac ID =   33377                -1.9755E-01 -8.8787E-01  1.3174E-01  9.1907E-01
                               -3.7479E-01  1.0665E+01 -4.7045E+01  2.5147E+03

           1    2.60024E+00    -6.9757E-03  5.9093E-03 -7.6518E-02  7.7062E-02
ac ID =   33377                -2.0731E-01 -1.8177E-01  4.3558E-02  2.7913E-01
                               -3.7490E-01  1.0671E+01 -4.7056E+01  2.5147E+03

           1    2.70023E+00    -1.2025E-02 -1.6301E-03  9.8584E-03  1.5635E-02
ac ID =   33377                 3.2559E-02 -2.1748E-01  3.4890E-02  2.2266E-01
                               -3.7501E-01  1.0676E+01 -4.7068E+01  2.5147E+03

           1    2.80022E+00    -5.4360E-03 -4.7273E-03  6.3489E-02  6.3897E-02
ac ID =   33377                 3.6797E-01 -1.4229E-01 -1.5855E-02  3.9484E-01
                               -3.7511E-01  1.0682E+01 -4.7079E+01  2.5147E+03

           1    2.90021E+00     5.8806E-03 -2.5744E-03 -1.0511E-02  1.2316E-02
ac ID =   33377                 1.4385E-01  3.2115E-01 -7.9773E-02  3.6083E-01
                               -3.7520E-01  1.0687E+01 -4.7090E+01  2.5147E+03

           1    3.00020E+00    -6.4568E-03  2.1662E-03 -8.9980E-02  9.0238E-02
ac ID =   33377                -3.7729E-02  8.7439E-02 -5.1218E-02  1.0813E-01
                               -3.7530E-01  1.0692E+01 -4.7101E+01  2.5147E+03

           1    3.10019E+00    -1.0613E-03  2.8174E-04 -1.1625E-02  1.1676E-02
ac ID =   33377                 4.4645E-02 -2.2874E-01 -2.6063E-02  2.3451E-01
                               -3.7537E-01  1.0698E+01 -4.7113E+01  2.5147E+03

           1    3.20018E+00     8.9958E-03  2.0499E-03  6.3941E-02  6.4604E-02
ac ID =   33377                -1.9621E-02 -2.8490E-01  3.4304E-02  2.8763E-01
                               -3.7545E-01  1.0703E+01 -4.7125E+01  2.5147E+03

           1    3.30017E+00     7.5013E-03  6.4046E-04  2.6640E-03  7.9860E-03
ac ID =   33377                -2.2745E-01 -2.5243E-01  1.3932E-01  3.6724E-01
                               -3.7553E-01  1.0709E+01 -4.7137E+01  2.5147E+03

           1    3.40016E+00     8.7856E-03  3.5508E-03 -1.2285E-01  1.2322E-01
ac ID =   33377                -3.2221E-01  1.9313E-01  1.1112E-01  3.9174E-01
                               -3.7564E-01  1.0714E+01 -4.7148E+01  2.5147E+03

           1    3.50015E+00     9.9480E-03  3.6895E-03 -1.6191E-01  1.6225E-01
ac ID =   33377                -1.8727E-01  5.8525E-01  2.6807E-02  6.1507E-01
                               -3.7575E-01  1.0720E+01 -4.7160E+01  2.5147E+03

           1    3.60014E+00     1.6352E-02 -4.6085E-03 -8.0345E-02  8.2122E-02
ac ID =   33377                 1.1658E-01  1.0121E+00 -1.2262E-01  1.0262E+00
                               -3.7586E-01  1.0727E+01 -4.7172E+01  2.5147E+03

           1    3.70013E+00     3.5255E-02 -4.2223E-03 -8.7657E-02  9.4576E-02
ac ID =   33377                 3.0337E-01  1.3214E+00 -1.2579E-01  1.3616E+00
                               -3.7597E-01  1.0733E+01 -4.7185E+01  2.5147E+03

           1    3.80012E+00     3.3519E-02 -2.3986E-03 -1.8057E-01  1.8367E-01
ac ID =   33377                 2.1387E-01  1.5892E+00 -7.2035E-02  1.6051E+00
                               -3.7608E-01  1.0740E+01 -4.7196E+01  2.5147E+03

           1    3.90011E+00     3.6769E-02  2.1189E-03 -2.5386E-01  2.5652E-01
ac ID =   33377                 9.6718E-02  1.5838E+00  2.1267E-02  1.5869E+00
                               -3.7618E-01  1.0747E+01 -4.7208E+01  2.5147E+03

           1    4.00010E+00     3.6940E-02 -3.9283E-03 -2.0888E-01  2.1216E-01
ac ID =   33377                -3.1928E-02  1.3671E+00 -8.3593E-02  1.3700E+00
                               -3.7627E-01  1.0755E+01 -4.7221E+01  2.5147E+03

           1    4.10009E+00     4.4028E-02  4.0233E-03 -1.8503E-01  1.9024E-01
ac ID =   33377                -2.3689E-01  1.2341E+00 -5.5257E-02  1.2579E+00
                               -3.7636E-01  1.0764E+01 -4.7234E+01  2.5147E+03

           1    4.20008E+00     3.7475E-02  1.8309E-03 -2.4773E-01  2.5055E-01
ac ID =   33377                -3.0875E-01  1.3287E+00  1.7543E-01  1.3753E+00
                               -3.7648E-01  1.0773E+01 -4.7246E+01  2.5147E+03

           1    4.30007E+00     4.8229E-02  7.8645E-03 -3.6564E-01  3.6889E-01
ac ID =   33377                -4.1506E-01  1.9110E+00  2.5595E-01  1.9722E+00
                               -3.7663E-01  1.0783E+01 -4.7259E+01  2.5147E+03

           1    4.40006E+00     6.7310E-02  4.4766E-03 -3.4263E-01  3.4921E-01
ac ID =   33377                -2.4415E-01  2.3858E+00  1.4771E-01  2.4028E+00
                               -3.7677E-01  1.0794E+01 -4.7272E+01  2.5147E+03

           1    4.50005E+00     6.6556E-02  4.2667E-04 -2.7799E-01  2.8584E-01
ac ID =   33377                 1.0288E-01  2.2603E+00 -2.3755E-01  2.2751E+00
                               -3.7695E-01  1.0807E+01 -4.7285E+01  2.5147E+03

           1    4.60004E+00     6.7530E-02 -6.9900E-03 -3.3372E-01  3.4055E-01
ac ID =   33377                 2.2329E-01  2.3484E+00 -1.8315E-01  2.3661E+00
                               -3.7713E-01  1.0820E+01 -4.7298E+01  2.5147E+03

           1    4.70003E+00     7.4690E-02 -2.8183E-03 -4.2721E-01  4.3370E-01
ac ID =   33377                 3.0459E-01  2.5179E+00 -7.6510E-02  2.5374E+00
                               -3.7733E-01  1.0835E+01 -4.7312E+01  2.5147E+03

           1    4.80002E+00     8.1621E-02  6.2263E-03 -4.6608E-01  4.7321E-01
ac ID =   33377                -8.3284E-02  2.5729E+00  1.0516E-01  2.5764E+00
                               -3.7752E-01  1.0850E+01 -4.7326E+01  2.5147E+03

           1    4.90001E+00     7.6485E-02 -2.4652E-03 -4.1374E-01  4.2076E-01
ac ID =   33377                 3.7569E-02  2.5708E+00  1.0074E-01  2.5730E+00
                               -3.7771E-01  1.0868E+01 -4.7340E+01  2.5147E+03

           1    5.00000E+00     8.3384E-02 -1.9555E-03 -4.2707E-01  4.3514E-01
ac ID =   33377                -2.6320E-01  2.7964E+00 -8.6619E-02  2.8101E+00
                               -3.7792E-01  1.0887E+01 -4.7355E+01  2.5147E+03

           1    5.10049E+00     8.7270E-02  1.2143E-02 -5.2543E-01  5.3276E-01
ac ID =   33377                -5.9616E-01  2.9686E+00 -5.4488E-02  3.0283E+00
                               -3.7815E-01  1.0907E+01 -4.7369E+01  2.5147E+03

           1    5.20048E+00     9.2199E-02  5.4490E-03 -5.5410E-01  5.6175E-01
ac ID =   33377                -4.4985E-01  3.1544E+00 -1.0074E-01  3.1879E+00
                               -3.7845E-01  1.0929E+01 -4.7385E+01  2.5147E+03

           1    5.30047E+00     9.8984E-02 -1.2895E-03 -5.4782E-01  5.5669E-01
ac ID =   33377                -2.8695E-01  3.2807E+00  5.6547E-02  3.2938E+00
                               -3.7875E-01  1.0953E+01 -4.7400E+01  2.5147E+03

           1    5.40046E+00     1.0708E-01 -7.8178E-04 -5.5754E-01  5.6773E-01
ac ID =   33377                -1.4984E-01  3.4321E+00  1.1942E-01  3.4374E+00
                               -3.7907E-01  1.0978E+01 -4.7416E+01  2.5147E+03

           1    5.50045E+00     1.1331E-01 -2.6839E-04 -6.5250E-01  6.6227E-01
ac ID =   33377                 1.0623E-01  3.7890E+00 -7.3108E-02  3.7912E+00
                               -3.7947E-01  1.1005E+01 -4.7432E+01  2.5147E+03

           1    5.60044E+00     9.6935E-02 -3.3571E-03 -7.2877E-01  7.3520E-01
ac ID =   33377                 9.9955E-02  3.7110E+00 -8.8562E-02  3.7134E+00
                               -3.7985E-01  1.1034E+01 -4.7449E+01  2.5147E+03

           1    5.70043E+00     1.0577E-01 -3.8654E-03 -7.4726E-01  7.5472E-01
ac ID =   33377                -2.4023E-02  3.9762E+00 -1.5941E-01  3.9795E+00
                               -3.8024E-01  1.1064E+01 -4.7465E+01  2.5147E+03

           1    5.80042E+00     1.1685E-01  2.9106E-03 -7.3587E-01  7.4509E-01
ac ID =   33377                -2.6265E-01  4.0584E+00  1.4908E-02  4.0669E+00
                               -3.8066E-01  1.1096E+01 -4.7482E+01  2.5147E+03

           1    5.90041E+00     1.1512E-01  2.2776E-03 -7.7132E-01  7.7987E-01
ac ID =   33377                -2.1656E-01  4.2421E+00  7.5770E-02  4.2483E+00
                               -3.8113E-01  1.1130E+01 -4.7499E+01  2.5147E+03

           1    6.00040E+00     1.2243E-01  5.9305E-03 -8.4731E-01  8.5613E-01
ac ID =   33377                -6.0793E-01  4.4617E+00  6.8597E-02  4.5034E+00
                               -3.8159E-01  1.1165E+01 -4.7516E+01  2.5147E+03

           1    6.10039E+00     1.2238E-01  1.0045E-02 -8.4710E-01  8.5595E-01
ac ID =   33377                -7.9252E-01  4.2865E+00 -1.0261E-01  4.3603E+00
                               -3.8210E-01  1.1202E+01 -4.7533E+01  2.5147E+03

           1    6.20038E+00     1.3218E-01 -2.8817E-03 -8.4592E-01  8.5619E-01
ac ID =   33377                -1.2928E-01  4.4285E+00 -2.1749E-01  4.4357E+00
                               -3.8266E-01  1.1241E+01 -4.7550E+01  2.5147E+03

           1    6.30037E+00     1.2377E-01 -2.3935E-03 -8.9586E-01  9.0437E-01
ac ID =   33377                -2.9031E-01  4.2741E+00 -7.0136E-02  4.2845E+00
                               -3.8319E-01  1.1282E+01 -4.7567E+01  2.5147E+03

           1    6.40036E+00     1.2520E-01  9.8910E-03 -9.9097E-01  9.9890E-01
ac ID =   33377                -3.8314E-01  4.7041E+00  1.7103E-02  4.7197E+00
                               -3.8382E-01  1.1325E+01 -4.7584E+01  2.5147E+03

           1    6.50035E+00     1.4308E-01 -1.8213E-03 -1.0502E+00  1.0599E+00
ac ID =   33377                -1.2846E-02  5.2649E+00  4.2613E-02  5.2651E+00
                               -3.8442E-01  1.1369E+01 -4.7601E+01  2.5147E+03

           1    6.60034E+00     1.3959E-01 -1.3191E-02 -1.0463E+00  1.0556E+00
ac ID =   33377                 1.9564E-01  5.3854E+00 -6.6431E-02  5.3894E+00
                               -3.8501E-01  1.1415E+01 -4.7618E+01  2.5147E+03

           1    6.70033E+00     1.4088E-01  1.0640E-02 -1.0617E+00  1.0711E+00
ac ID =   33377                -6.0029E-01  5.4838E+00 -1.2508E-01  5.5180E+00
                               -3.8563E-01  1.1463E+01 -4.7635E+01  2.5147E+03

           1    6.80032E+00     1.4702E-01  5.6485E-04 -1.1300E+00  1.1395E+00
ac ID =   33377                -4.1383E-01  5.7503E+00 -8.3815E-02  5.7658E+00
                               -3.8628E-01  1.1513E+01 -4.7651E+01  2.5147E+03

           1    6.90031E+00     1.6017E-01  5.5153E-04 -1.1921E+00  1.2028E+00
ac ID =   33377                -5.1531E-01  6.1339E+00  2.5130E-03  6.1555E+00
                               -3.8694E-01  1.1565E+01 -4.7667E+01  2.5147E+03

           1    7.00030E+00     1.5098E-01 -3.2725E-04 -1.1913E+00  1.2008E+00
ac ID =   33377                -6.2038E-01  5.8326E+00 -9.6309E-02  5.8662E+00
                               -3.8757E-01  1.1618E+01 -4.7683E+01  2.5147E+03

           1    7.10029E+00     1.5481E-01  1.9610E-02 -1.2442E+00  1.2540E+00
ac ID =   33377                -8.7807E-01  6.0922E+00 -6.0557E-02  6.1555E+00
                               -3.8832E-01  1.1673E+01 -4.7699E+01  2.5147E+03

           1    7.20028E+00     1.6311E-01 -3.5608E-03 -1.3196E+00  1.3296E+00
ac ID =   33377                -2.7724E-01  6.4054E+00 -4.1297E-02  6.4115E+00
                               -3.8903E-01  1.1730E+01 -4.7714E+01  2.5147E+03

           1    7.30027E+00     1.6705E-01 -1.1012E-02 -1.3970E+00  1.4070E+00
ac ID =   33377                -3.4883E-01  6.8266E+00  1.0250E-01  6.8363E+00
                               -3.8971E-01  1.1788E+01 -4.7728E+01  2.5147E+03

           1    7.40026E+00     1.7321E-01  2.0049E-02 -1.4520E+00  1.4624E+00
ac ID =   33377                -4.8098E-01  7.2999E+00  1.5278E-01  7.3173E+00
                               -3.9052E-01  1.1848E+01 -4.7742E+01  2.5147E+03

           1    7.50025E+00     1.8417E-01 -5.4089E-03 -1.4513E+00  1.4630E+00
ac ID =   33377                -1.3483E-01  7.6494E+00  1.5255E-01  7.6521E+00
                               -3.9122E-01  1.1910E+01 -4.7756E+01  2.5147E+03

           1    7.60024E+00     1.8003E-01 -1.9582E-03 -1.4864E+00  1.4973E+00
ac ID =   33377                -3.2685E-01  7.6935E+00 -1.9401E-01  7.7029E+00
                               -3.9192E-01  1.1973E+01 -4.7768E+01  2.5147E+03

           1    7.70023E+00     1.8430E-01  3.9578E-03 -1.5346E+00  1.5456E+00
ac ID =   33377                -6.6759E-01  7.6190E+00 -3.5117E-01  7.6563E+00
                               -3.9267E-01  1.2038E+01 -4.7780E+01  2.5147E+03

           1    7.80022E+00     1.9331E-01  9.5766E-03 -1.5791E+00  1.5909E+00
ac ID =   33377                -7.6021E-01  7.7363E+00 -4.3616E-02  7.7737E+00
                               -3.9341E-01  1.2105E+01 -4.7791E+01  2.5147E+03

           1    7.90021E+00     2.0369E-01  4.0027E-03 -1.6062E+00  1.6191E+00
ac ID =   33377                -7.4944E-01  7.7941E+00 -3.8061E-03  7.8301E+00
                               -3.9414E-01  1.2173E+01 -4.7801E+01  2.5147E+03

           1    8.00020E+00     2.0277E-01  2.0998E-03 -1.6529E+00  1.6653E+00
ac ID =   33377                -7.5341E-01  8.2497E+00 -2.3768E-02  8.2841E+00
                               -3.9489E-01  1.2243E+01 -4.7810E+01  2.5147E+03

           1    8.10019E+00     2.1070E-01  5.8544E-03 -1.7337E+00  1.7464E+00
ac ID =   33377                -7.0441E-01  8.7327E+00 -5.2023E-02  8.7612E+00
                               -3.9567E-01  1.2315E+01 -4.7819E+01  2.5147E+03

           1    8.20018E+00     2.1551E-01 -3.9419E-04 -1.7858E+00  1.7988E+00
ac ID =   33377                -5.5749E-01  9.2405E+00 -9.1654E-02  9.2577E+00
                               -3.9644E-01  1.2388E+01 -4.7826E+01  2.5147E+03

           1    8.30017E+00     2.2614E-01 -1.9402E-03 -1.8242E+00  1.8382E+00
ac ID =   33377                -2.4544E-01  9.6068E+00 -1.0664E-01  9.6105E+00
                               -3.9723E-01  1.2463E+01 -4.7832E+01  2.5147E+03

           1    8.40016E+00     2.3097E-01  1.6410E-03 -1.8462E+00  1.8606E+00
ac ID =   33377                -4.3308E-01  9.9425E+00 -4.3685E-02  9.9520E+00
                               -3.9799E-01  1.2540E+01 -4.7838E+01  2.5147E+03

           1    8.50015E+00     2.3384E-01 -2.6924E-03 -1.8937E+00  1.9081E+00
ac ID =   33377                -4.8526E-01  1.0090E+01 -1.0544E-01  1.0102E+01
                               -3.9874E-01  1.2618E+01 -4.7842E+01  2.5147E+03

           1    8.60014E+00     2.3594E-01  1.1747E-03 -1.9585E+00  1.9727E+00
ac ID =   33377                -6.5025E-01  1.0349E+01 -1.4424E-01  1.0371E+01
                               -3.9951E-01  1.2697E+01 -4.7845E+01  2.5147E+03

           1    8.70013E+00     2.4335E-01  7.8222E-03 -1.9926E+00  2.0074E+00
ac ID =   33377                -7.3844E-01  1.0531E+01 -1.1654E-02  1.0557E+01
                               -4.0028E-01  1.2779E+01 -4.7847E+01  2.5147E+03

           1    8.80012E+00     2.4570E-01  1.4264E-03 -2.0286E+00  2.0435E+00
ac ID =   33377                -9.5729E-01  1.0611E+01  4.9765E-02  1.0655E+01
                               -4.0102E-01  1.2861E+01 -4.7847E+01  2.5147E+03

           1    8.90011E+00     2.4393E-01  1.0976E-02 -2.0557E+00  2.0701E+00
ac ID =   33377                -1.0401E+00  1.0852E+01  2.5029E-02  1.0902E+01
                               -4.0182E-01  1.2945E+01 -4.7846E+01  2.5147E+03

           1    9.00010E+00     2.6376E-01 -1.3977E-03 -2.1102E+00  2.1266E+00
ac ID =   33377                -7.1080E-01  1.1344E+01  1.0932E-01  1.1367E+01
                               -4.0258E-01  1.3031E+01 -4.7844E+01  2.5147E+03

           1    9.10009E+00     2.7323E-01  1.5326E-03 -2.1633E+00  2.1805E+00
ac ID =   33377                -6.0816E-01  1.1678E+01  7.1283E-03  1.1694E+01
                               -4.0335E-01  1.3117E+01 -4.7840E+01  2.5147E+03

           1    9.20008E+00     2.5734E-01  6.4913E-03 -2.1850E+00  2.2001E+00
ac ID =   33377                -6.0769E-01  1.1432E+01 -1.3857E-01  1.1449E+01
                               -4.0414E-01  1.3205E+01 -4.7834E+01  2.5147E+03

           1    9.30007E+00     2.7299E-01  3.3176E-03 -2.2017E+00  2.2185E+00
ac ID =   33377                -5.5100E-01  1.1773E+01 -9.6158E-02  1.1786E+01
                               -4.0486E-01  1.3295E+01 -4.7827E+01  2.5147E+03

           1    9.40006E+00     2.6723E-01 -1.2404E-02 -2.2203E+00  2.2364E+00
ac ID =   33377                -3.8728E-01  1.1653E+01 -1.7999E-02  1.1660E+01
                               -4.0556E-01  1.3385E+01 -4.7818E+01  2.5147E+03

           1    9.50005E+00     2.7019E-01  9.1421E-03 -2.2773E+00  2.2933E+00
ac ID =   33377                -8.7877E-01  1.1915E+01  7.6438E-02  1.1948E+01
                               -4.0629E-01  1.3477E+01 -4.7807E+01  2.5147E+03

           1    9.60004E+00     2.7587E-01  1.0479E-02 -2.3005E+00  2.3170E+00
ac ID =   33377                -9.6192E-01  1.2233E+01 -5.6052E-02  1.2271E+01
                               -4.0701E-01  1.3570E+01 -4.7794E+01  2.5147E+03

           1    9.70003E+00     2.9382E-01 -3.5588E-03 -2.3130E+00  2.3316E+00
ac ID =   33377                -7.3364E-01  1.2523E+01 -1.7277E-01  1.2546E+01
                               -4.0768E-01  1.3664E+01 -4.7780E+01  2.5147E+03

           1    9.80002E+00     2.7736E-01  6.0052E-05 -2.3198E+00  2.3363E+00
ac ID =   33377                -7.9927E-01  1.2476E+01 -1.0025E-01  1.2502E+01
                               -4.0836E-01  1.3759E+01 -4.7763E+01  2.5147E+03

           1    9.90001E+00     2.8495E-01  9.4558E-03 -2.3545E+00  2.3717E+00
ac ID =   33377                -8.7094E-01  1.2728E+01 -1.3361E-01  1.2759E+01
                               -4.0909E-01  1.3855E+01 -4.7744E+01  2.5147E+03

           1    1.00005E+01     2.9278E-01  4.7014E-03 -2.3982E+00  2.4160E+00
ac ID =   33377                -6.9264E-01  1.3136E+01 -3.3514E-02  1.3154E+01
                               -4.0976E-01  1.3953E+01 -4.7724E+01  2.5147E+03

           1    1.01005E+01     2.8879E-01 -1.2608E-02 -2.4123E+00  2.4296E+00
ac ID =   33377                -3.7336E-01  1.2951E+01 -1.4396E-01  1.2957E+01
                               -4.1038E-01  1.4051E+01 -4.7701E+01  2.5147E+03

           1    1.02005E+01     3.0273E-01  1.0614E-02 -2.4576E+00  2.4762E+00
ac ID =   33377                -9.0081E-01  1.3393E+01 -2.9668E-01  1.3427E+01
                               -4.1105E-01  1.4150E+01 -4.7676E+01  2.5147E+03

           1    1.03005E+01     3.0319E-01  2.5182E-03 -2.4857E+00  2.5041E+00
ac ID =   33377                -8.5981E-01  1.3556E+01 -1.5450E-01  1.3584E+01
                               -4.1169E-01  1.4250E+01 -4.7649E+01  2.5147E+03

           1    1.04005E+01     3.0772E-01  2.1218E-03 -2.5187E+00  2.5375E+00
ac ID =   33377                -8.4285E-01  1.3623E+01  1.2896E-01  1.3650E+01
                               -4.1230E-01  1.4351E+01 -4.7619E+01  2.5147E+03

           1    1.05004E+01     3.1114E-01 -1.0442E-03 -2.5172E+00  2.5364E+00
ac ID =   33377                -1.0532E+00  1.3935E+01  3.7418E-02  1.3975E+01
                               -4.1293E-01  1.4454E+01 -4.7587E+01  2.5147E+03

           1    1.06004E+01     3.2711E-01  1.2490E-02 -2.5098E+00  2.5311E+00
ac ID =   33377                -1.0372E+00  1.3909E+01 -8.5799E-02  1.3948E+01
                               -4.1356E-01  1.4557E+01 -4.7553E+01  2.5147E+03

           1    1.07004E+01     3.2977E-01 -2.6255E-04 -2.5288E+00  2.5502E+00
ac ID =   33377                -7.9029E-01  1.4113E+01 -9.4816E-02  1.4136E+01
                               -4.1414E-01  1.4661E+01 -4.7517E+01  2.5147E+03

           1    1.08004E+01     3.2718E-01  1.8858E-04 -2.5422E+00  2.5632E+00
ac ID =   33377                -6.7727E-01  1.3828E+01  3.1555E-02  1.3845E+01
                               -4.1474E-01  1.4766E+01 -4.7479E+01  2.5147E+03

           1    1.09004E+01     3.2954E-01  9.4471E-03 -2.5757E+00  2.5967E+00
ac ID =   33377                -9.0570E-01  1.3876E+01  5.9472E-02  1.3906E+01
                               -4.1534E-01  1.4873E+01 -4.7439E+01  2.5147E+03

           1    1.10004E+01     3.2887E-01  6.7839E-04 -2.5729E+00  2.5939E+00
ac ID =   33377                -7.1909E-01  1.3982E+01 -4.6180E-02  1.4001E+01
                               -4.1589E-01  1.4980E+01 -4.7397E+01  2.5147E+03

           1    1.11004E+01     3.3758E-01 -2.2622E-03 -2.5434E+00  2.5657E+00
ac ID =   33377                -6.7135E-01  1.4033E+01 -2.1797E-01  1.4050E+01
                               -4.1643E-01  1.5089E+01 -4.7352E+01  2.5147E+03

           1    1.12004E+01     3.3726E-01  8.2873E-03 -2.5542E+00  2.5764E+00
ac ID =   33377                -1.0495E+00  1.4463E+01 -1.0427E-01  1.4502E+01
                               -4.1697E-01  1.5198E+01 -4.7305E+01  2.5147E+03

           1    1.13004E+01     3.3736E-01  5.5752E-03 -2.5607E+00  2.5828E+00
ac ID =   33377                -8.9315E-01  1.4303E+01  8.8933E-04  1.4331E+01
                               -4.1748E-01  1.5308E+01 -4.7255E+01  2.5147E+03

           1    1.14004E+01     3.3444E-01  2.4615E-03 -2.5333E+00  2.5552E+00
ac ID =   33377                -8.9787E-01  1.4050E+01 -1.5380E-02  1.4079E+01
                               -4.1799E-01  1.5420E+01 -4.7204E+01  2.5147E+03

           1    1.15003E+01     3.4538E-01  5.0468E-03 -2.4938E+00  2.5176E+00
ac ID =   33377                -9.0992E-01  1.4025E+01  1.2236E-01  1.4055E+01
                               -4.1849E-01  1.5532E+01 -4.7150E+01  2.5147E+03

           1    1.16003E+01     3.2459E-01  4.2673E-03 -2.4894E+00  2.5104E+00
ac ID =   33377                -8.5336E-01  1.3752E+01  1.1858E-01  1.3779E+01
                               -4.1900E-01  1.5644E+01 -4.7094E+01  2.5147E+03

           1    1.17003E+01     3.4535E-01  4.9817E-03 -2.5183E+00  2.5418E+00
ac ID =   33377                -7.6651E-01  1.4055E+01 -8.3975E-02  1.4077E+01
                               -4.1951E-01  1.5758E+01 -4.7035E+01  2.5147E+03

           1    1.18003E+01     3.4458E-01  3.7616E-03 -2.5183E+00  2.5418E+00
ac ID =   33377                -7.6722E-01  1.4094E+01 -1.2390E-01  1.4115E+01
                               -4.1999E-01  1.5872E+01 -4.6974E+01  2.5147E+03

           1    1.19003E+01     3.2782E-01  4.4144E-03 -2.4740E+00  2.4956E+00
ac ID =   33377                -8.5653E-01  1.3922E+01 -1.0613E-01  1.3949E+01
                               -4.2044E-01  1.5987E+01 -4.6911E+01  2.5147E+03

           1    1.20003E+01     3.4353E-01  9.1942E-03 -2.4508E+00  2.4748E+00
ac ID =   33377                -9.2833E-01  1.4018E+01  6.4373E-02  1.4049E+01
                               -4.2088E-01  1.6103E+01 -4.6845E+01  2.5147E+03

           1    1.21003E+01     3.4470E-01 -1.1351E-03 -2.4389E+00  2.4631E+00
ac ID =   33377                -7.0125E-01  1.3913E+01  1.1632E-01  1.3931E+01
                               -4.2127E-01  1.6219E+01 -4.6777E+01  2.5147E+03

           1    1.22003E+01     3.3272E-01  8.7138E-03 -2.4096E+00  2.4325E+00
ac ID =   33377                -1.2080E+00  1.3664E+01  1.6710E-01  1.3718E+01
                               -4.2161E-01  1.6336E+01 -4.6706E+01  2.5147E+03

           1    1.23003E+01     3.2548E-01  6.9833E-03 -2.3678E+00  2.3901E+00
ac ID =   33377                -9.5354E-01  1.3268E+01 -2.5656E-01  1.3304E+01
                               -4.2198E-01  1.6453E+01 -4.6633E+01  2.5147E+03

           1    1.24003E+01     3.3869E-01 -2.0867E-03 -2.3216E+00  2.3462E+00
ac ID =   33377                -7.4789E-01  1.3033E+01 -1.9230E-01  1.3056E+01
                               -4.2228E-01  1.6571E+01 -4.6558E+01  2.5147E+03

           1    1.25002E+01     3.3926E-01  5.4631E-03 -2.3188E+00  2.3435E+00
ac ID =   33377                -9.2780E-01  1.2761E+01 -6.4036E-02  1.2795E+01
                               -4.2259E-01  1.6689E+01 -4.6480E+01  2.5147E+03

           1    1.26002E+01     3.1628E-01  1.3024E-02 -2.3027E+00  2.3243E+00
ac ID =   33377                -1.1943E+00  1.2485E+01 -1.2838E-01  1.2543E+01
                               -4.2288E-01  1.6808E+01 -4.6400E+01  2.5147E+03

           1    1.27002E+01     3.4610E-01 -4.3211E-03 -2.2620E+00  2.2884E+00
ac ID =   33377                -3.9654E-01  1.2805E+01 -3.2308E-01  1.2815E+01
                               -4.2314E-01  1.6927E+01 -4.6318E+01  2.5147E+03

           1    1.28002E+01     3.4534E-01 -9.8896E-03 -2.2085E+00  2.2353E+00
ac ID =   33377                -7.2590E-01  1.2550E+01 -1.0191E-01  1.2571E+01
                               -4.2337E-01  1.7047E+01 -4.6233E+01  2.5147E+03

           1    1.29002E+01     3.2067E-01  9.4871E-03 -2.1463E+00  2.1701E+00
ac ID =   33377                -9.4630E-01  1.1913E+01  3.3709E-02  1.1950E+01
                               -4.2363E-01  1.7167E+01 -4.6147E+01  2.5147E+03

           1    1.30002E+01     3.2794E-01  1.0332E-02 -2.1390E+00  2.1641E+00
ac ID =   33377                -8.6812E-01  1.1908E+01 -9.3616E-02  1.1940E+01
                               -4.2388E-01  1.7287E+01 -4.6057E+01  2.5147E+03

           1    1.31002E+01     3.2646E-01 -7.7464E-03 -2.0871E+00  2.1125E+00
ac ID =   33377                -3.9356E-01  1.1326E+01  4.8721E-02  1.1333E+01
                               -4.2407E-01  1.7408E+01 -4.5966E+01  2.5147E+03

           1    1.32002E+01     3.1281E-01 -9.1595E-03 -1.9961E+00  2.0205E+00
ac ID =   33377                -7.7859E-01  1.0694E+01  2.5089E-01  1.0725E+01
                               -4.2429E-01  1.7530E+01 -4.5873E+01  2.5147E+03

           1    1.33002E+01     3.1302E-01  2.0226E-02 -1.9706E+00  1.9954E+00
ac ID =   33377                -1.1757E+00  1.0679E+01 -1.3984E-01  1.0745E+01
                               -4.2459E-01  1.7651E+01 -4.5778E+01  2.5147E+03

           1    1.34002E+01     3.1179E-01 -8.7938E-03 -1.9343E+00  1.9592E+00
ac ID =   33377                -4.2102E-01  1.0501E+01  3.2203E-01  1.0515E+01
                               -4.2486E-01  1.7773E+01 -4.5681E+01  2.5147E+03

           1    1.35001E+01     3.1833E-01 -1.0367E-02 -1.8938E+00  1.9204E+00
ac ID =   33377                -2.1429E-01  1.0181E+01  2.8128E-01  1.0187E+01
                               -4.2514E-01  1.7895E+01 -4.5582E+01  2.5147E+03

           1    1.36001E+01     3.0170E-01  4.3874E-03 -1.8384E+00  1.8630E+00
ac ID =   33377                -8.0878E-01  9.8985E+00 -3.0549E-01  9.9362E+00
                               -4.2552E-01  1.8017E+01 -4.5481E+01  2.5147E+03

           1    1.37001E+01     3.1727E-01  1.2120E-02 -1.7664E+00  1.7948E+00
ac ID =   33377                -5.9122E-01  9.6761E+00 -5.2540E-01  9.7084E+00
                               -4.2588E-01  1.8140E+01 -4.5378E+01  2.5147E+03

           1    1.38001E+01     2.8143E-01 -2.0493E-02 -1.7164E+00  1.7394E+00
ac ID =   33377                -2.2825E-01  8.8945E+00 -1.3788E-01  8.8985E+00
                               -4.2619E-01  1.8263E+01 -4.5273E+01  2.5147E+03

           1    1.39001E+01     2.8965E-01  2.9161E-03 -1.6862E+00  1.7109E+00
ac ID =   33377                -5.5180E-01  7.9908E+00  2.8715E-01  8.0150E+00
                               -4.2656E-01  1.8385E+01 -4.5166E+01  2.5147E+03

           1    1.40001E+01     2.7759E-01  1.6291E-02 -1.6201E+00  1.6438E+00
ac ID =   33377                -9.4142E-01  7.6427E+00  1.9537E-01  7.7029E+00
                               -4.2696E-01  1.8509E+01 -4.5058E+01  2.5147E+03

           1    1.41001E+01     2.8597E-01 -9.3704E-03 -1.5254E+00  1.5520E+00
ac ID =   33377                -4.1751E-01  7.0869E+00 -1.8772E-02  7.0992E+00
                               -4.2732E-01  1.8632E+01 -4.4948E+01  2.5147E+03

           1    1.42001E+01     2.5637E-01 -1.1515E-02 -1.4885E+00  1.5104E+00
ac ID =   33377                -1.8715E-01  6.2962E+00  1.2821E-01  6.3003E+00
                               -4.2778E-01  1.8756E+01 -4.4836E+01  2.5147E+03

           1    1.43001E+01     2.8017E-01  1.1252E-02 -1.4765E+00  1.5028E+00
ac ID =   33377                -8.5052E-01  6.8152E+00  3.7591E-01  6.8783E+00
                               -4.2821E-01  1.8880E+01 -4.4723E+01  2.5147E+03

           1    1.44001E+01     2.5921E-01 -1.5488E-04 -1.3887E+00  1.4127E+00
ac ID =   33377                -5.2423E-01  5.8860E+00  1.6440E-01  5.9115E+00
                               -4.2874E-01  1.9004E+01 -4.4609E+01  2.5147E+03

           1    1.45000E+01     2.4148E-01 -1.9325E-02 -1.3114E+00  1.3336E+00
ac ID =   33377                 3.1915E-01  5.2612E+00  8.2480E-03  5.2709E+00
                               -4.2925E-01  1.9128E+01 -4.4494E+01  2.5147E+03

           1    1.46000E+01     2.5240E-01  7.2115E-03 -1.2484E+00  1.2737E+00
ac ID =   33377                -6.9697E-01  5.0687E+00 -1.2277E-01  5.1179E+00
                               -4.2972E-01  1.9253E+01 -4.4377E+01  2.5147E+03

           1    1.47000E+01     2.1277E-01  7.7684E-03 -1.2051E+00  1.2237E+00
ac ID =   33377                -4.0337E-01  4.0553E+00 -3.0151E-01  4.0864E+00
                               -4.3035E-01  1.9377E+01 -4.4258E+01  2.5147E+03

           1    1.48005E+01     2.3279E-01  6.4023E-03 -1.1783E+00  1.2011E+00
ac ID =   33377                -5.0038E-01  4.2977E+00  4.1411E-02  4.3269E+00
                               -4.3088E-01  1.9502E+01 -4.4138E+01  2.5147E+03

           1    1.49005E+01     2.1857E-01 -2.0563E-02 -1.1041E+00  1.1257E+00
ac ID =   33377                -2.5618E-01  3.9238E+00  1.3039E-01  3.9343E+00
                               -4.3134E-01  1.9627E+01 -4.4017E+01  2.5147E+03

           1    1.50005E+01     1.9957E-01  1.6640E-02 -9.8443E-01  1.0046E+00
ac ID =   33377                -7.8165E-01  3.1009E+00  2.8660E-01  3.2107E+00
                               -4.3194E-01  1.9752E+01 -4.3896E+01  2.5147E+03

           1    1.51005E+01     1.9734E-01  1.2772E-04 -9.6138E-01  9.8143E-01
ac ID =   33377                -2.7614E-01  2.7373E+00  1.2274E-01  2.7540E+00
                               -4.3253E-01  1.9877E+01 -4.3773E+01  2.5147E+03

           1    1.52005E+01     2.0782E-01  1.5089E-03 -9.2443E-01  9.4750E-01
ac ID =   33377                -1.8958E-01  2.8751E+00 -2.6386E-01  2.8934E+00
                               -4.3302E-01  2.0002E+01 -4.3649E+01  2.5147E+03

           1    1.53005E+01     1.5758E-01 -5.3942E-03 -7.9842E-01  8.1384E-01
ac ID =   33377                -5.4769E-01  1.5914E+00 -6.0457E-01  1.7883E+00
                               -4.3354E-01  2.0127E+01 -4.3524E+01  2.5147E+03

           1    1.54005E+01     1.4015E-01  1.2777E-02 -7.4113E-01  7.5437E-01
ac ID =   33377                -1.8470E-01  1.1058E+00 -3.5480E-01  1.1759E+00
                               -4.3420E-01  2.0252E+01 -4.3398E+01  2.5147E+03

           1    1.55004E+01     1.9413E-01 -2.8485E-04 -7.0818E-01  7.3431E-01
ac ID =   33377                -5.0624E-02  1.6940E+00  1.9412E-01  1.7058E+00
                               -4.3464E-01  2.0376E+01 -4.3272E+01  2.5147E+03

           1    1.56004E+01     1.1851E-01 -1.3017E-02 -6.3780E-01  6.4884E-01
ac ID =   33377                -3.1249E-01  7.2058E-01 -1.0721E-01  7.9270E-01
                               -4.3517E-01  2.0501E+01 -4.3144E+01  2.5147E+03

           1    1.57004E+01     1.2480E-01  3.7699E-02 -5.8929E-01  6.0354E-01
ac ID =   33377                -1.1065E+00  8.6752E-01  4.4100E-02  1.4067E+00
                               -4.3581E-01  2.0625E+01 -4.3016E+01  2.5147E+03

           1    1.58004E+01     1.7232E-01 -2.5240E-02 -5.2463E-01  5.5278E-01
ac ID =   33377                -1.3568E-01  2.3921E+00  6.1127E-03  2.3960E+00
                               -4.3625E-01  2.0750E+01 -4.2888E+01  2.5147E+03

           1    1.59004E+01     1.6443E-01 -1.1747E-02 -4.3504E-01  4.6523E-01
ac ID =   33377                 1.6090E-01  2.4195E+00 -6.5716E-02  2.4258E+00
                               -4.3685E-01  2.0874E+01 -4.2759E+01  2.5147E+03

           1    1.60004E+01     1.2780E-01  3.7642E-02 -3.7906E-01  4.0179E-01
ac ID =   33377                -1.2878E+00  2.3928E+00  3.7024E-01  2.7424E+00
                               -4.3745E-01  2.0999E+01 -4.2630E+01  2.5147E+03

           1    1.61004E+01     1.6276E-01 -1.0996E-02 -3.3935E-01  3.7652E-01
ac ID =   33377                 2.6120E-01  3.1074E+00 -3.5350E-01  3.1383E+00
                               -4.3805E-01  2.1123E+01 -4.2501E+01  2.5147E+03

           1    1.62004E+01     1.6040E-01 -1.6950E-02 -2.6421E-01  3.0955E-01
ac ID =   33377                -2.0366E-01  3.3466E+00  3.7992E-02  3.3530E+00
                               -4.3856E-01  2.1247E+01 -4.2371E+01  2.5147E+03

           1    1.63004E+01     1.1919E-01  1.3067E-03 -2.0339E-01  2.3574E-01
ac ID =   33377                -4.3607E-03  2.5315E+00  1.9466E-02  2.5316E+00
                               -4.3918E-01  2.1371E+01 -4.2242E+01  2.5147E+03

           1    1.64004E+01     1.5221E-01  3.8975E-02 -1.5035E-01  2.1746E-01
ac ID =   33377                -9.5713E-01  3.4471E+00  3.9121E-01  3.5988E+00
                               -4.3984E-01  2.1494E+01 -4.2112E+01  2.5147E+03

           1    1.65003E+01     1.8623E-01 -2.0371E-02 -1.2462E-01  2.2501E-01
ac ID =   33377                 2.5171E-01  4.5177E+00 -4.4630E-01  4.5467E+00
                               -4.4037E-01  2.1618E+01 -4.1983E+01  2.5147E+03

           1    1.66003E+01     1.1276E-01 -7.4870E-03 -7.1285E-02  1.3361E-01
ac ID =   33377                -2.3264E-01  3.4281E+00 -6.7004E-01  3.5008E+00
                               -4.4099E-01  2.1741E+01 -4.1854E+01  2.5147E+03

           1    1.67003E+01     1.3178E-01  3.3777E-02  1.7102E-02  1.3711E-01
ac ID =   33377                -1.1070E+00  3.4293E+00 -1.4276E-01  3.6064E+00
                               -4.4166E-01  2.1865E+01 -4.1726E+01  2.5147E+03

           1    1.68003E+01     1.6214E-01 -8.4745E-03  7.7248E-02  1.7980E-01
ac ID =   33377                 2.6172E-01  3.9008E+00 -6.1190E-02  3.9101E+00
                               -4.4232E-01  2.1988E+01 -4.1599E+01  2.5147E+03

           1    1.69003E+01     1.2858E-01  6.0440E-03  1.2125E-01  1.7684E-01
ac ID =   33377                -5.1605E-02  3.2025E+00  3.6367E-01  3.2235E+00
                               -4.4294E-01  2.2111E+01 -4.1471E+01  2.5147E+03

           1    1.70003E+01     1.0497E-01  1.3996E-03  1.7797E-01  2.0663E-01
ac ID =   33377                -5.0807E-01  2.8560E+00  3.1457E-03  2.9009E+00
                               -4.4361E-01  2.2234E+01 -4.1345E+01  2.5147E+03

           1    1.71003E+01     1.4535E-01  3.9874E-03  2.2912E-01  2.7137E-01
ac ID =   33377                -1.6944E-01  3.4297E+00 -6.2365E-01  3.4901E+00
                               -4.4435E-01  2.2358E+01 -4.1220E+01  2.5147E+03

           1    1.72003E+01     1.0582E-01 -7.7217E-03  2.8259E-01  3.0186E-01
ac ID =   33377                 1.0721E-01  2.2014E+00 -6.6117E-01  2.3010E+00
                               -4.4499E-01  2.2481E+01 -4.1095E+01  2.5147E+03

           1    1.73003E+01     8.5123E-02  8.0417E-03  3.2212E-01  3.3328E-01
ac ID =   33377                -2.3794E-01  1.3719E+00 -9.6700E-02  1.3957E+00
                               -4.4573E-01  2.2604E+01 -4.0971E+01  2.5147E+03

           1    1.74003E+01     1.0524E-01  6.7666E-03  3.5655E-01  3.7182E-01
ac ID =   33377                -5.3471E-01  1.7037E+00  1.8109E-01  1.7948E+00
                               -4.4647E-01  2.2727E+01 -4.0849E+01  2.5147E+03

           1    1.75002E+01     8.5491E-02  1.2018E-03  4.0202E-01  4.1101E-01
ac ID =   33377                -3.7974E-02  9.8572E-01  9.9398E-05  9.8645E-01
                               -4.4723E-01  2.2851E+01 -4.0728E+01  2.5147E+03

           1    1.76002E+01     7.3898E-02 -8.2154E-03  4.4601E-01  4.5217E-01
ac ID =   33377                 6.7932E-02  8.9159E-01 -3.1764E-01  9.4892E-01
                               -4.4797E-01  2.2974E+01 -4.0608E+01  2.5147E+03

           1    1.77002E+01     8.6912E-02  1.1702E-02  5.0847E-01  5.1598E-01
ac ID =   33377                -5.2374E-01  5.0434E-01 -2.2076E-01  7.5987E-01
                               -4.4877E-01  2.3098E+01 -4.0489E+01  2.5147E+03

           1    1.78002E+01     6.4921E-02  8.3202E-03  5.3855E-01  5.4251E-01
ac ID =   33377                -1.0146E-01 -1.1209E-01  7.0591E-02  1.6686E-01
                               -4.4962E-01  2.3222E+01 -4.0372E+01  2.5147E+03

           1    1.79002E+01     5.1492E-02 -1.7484E-02  5.5582E-01  5.5847E-01
ac ID =   33377                 4.7252E-01 -6.1636E-01  1.3406E-01  7.8813E-01
                               -4.5040E-01  2.3346E+01 -4.0256E+01  2.5147E+03

           1    1.80002E+01     4.8113E-02  1.1231E-02  6.3786E-01  6.3977E-01
ac ID =   33377                -3.8307E-01 -1.1396E+00  2.9646E-01  1.2383E+00
                               -4.5123E-01  2.3471E+01 -4.0142E+01  2.5147E+03

           1    1.81002E+01     5.4877E-02  1.0313E-02  6.4813E-01  6.5053E-01
ac ID =   33377                 9.9699E-03 -1.3177E+00 -4.4979E-01  1.3924E+00
                               -4.5211E-01  2.3596E+01 -4.0029E+01  2.5147E+03

           1    1.82002E+01     3.7850E-02 -1.5754E-02  6.6753E-01  6.6879E-01
ac ID =   33377                 3.9879E-01 -1.5589E+00 -7.4862E-01  1.7747E+00
                               -4.5292E-01  2.3722E+01 -3.9918E+01  2.5147E+03

           1    1.83002E+01     4.5042E-02 -5.9924E-04  7.2297E-01  7.2437E-01
ac ID =   33377                 8.2901E-02 -1.8470E+00  1.2562E-02  1.8489E+00
                               -4.5378E-01  2.3847E+01 -3.9809E+01  2.5147E+03

           1    1.84002E+01     2.5369E-02  1.2401E-02  7.3932E-01  7.3986E-01
ac ID =   33377                -3.3574E-01 -2.2712E+00  6.1426E-01  2.3766E+00
                               -4.5466E-01  2.3974E+01 -3.9702E+01  2.5147E+03

           1    1.85001E+01     4.2322E-02  1.0162E-03  7.6533E-01  7.6650E-01
ac ID =   33377                 3.0513E-01 -2.0633E+00  1.5610E-01  2.0916E+00
                               -4.5556E-01  2.4100E+01 -3.9596E+01  2.5147E+03

           1    1.86001E+01     2.5481E-02 -8.0858E-03  8.0980E-01  8.1024E-01
ac ID =   33377                 1.4323E-01 -2.9428E+00 -3.4639E-01  2.9666E+00
                               -4.5639E-01  2.4228E+01 -3.9493E+01  2.5147E+03

           1    1.87001E+01     3.1169E-02  7.2647E-03  8.2100E-01  8.2162E-01
ac ID =   33377                 1.9998E-01 -2.8905E+00 -5.6796E-01  2.9525E+00
                               -4.5734E-01  2.4355E+01 -3.9391E+01  2.5147E+03

           1    1.88001E+01     1.2472E-02  3.9670E-03  8.5314E-01  8.5324E-01
ac ID =   33377                 1.3935E-01 -3.6214E+00 -2.4322E-01  3.6322E+00
                               -4.5824E-01  2.4484E+01 -3.9292E+01  2.5147E+03

           1    1.89001E+01     2.0076E-02 -1.2254E-02  8.9489E-01  8.9520E-01
ac ID =   33377                 5.7370E-01 -3.8795E+00  4.1576E-01  3.9437E+00
                               -4.5913E-01  2.4612E+01 -3.9194E+01  2.5147E+03

           1    1.90001E+01     2.2312E-02 -1.1601E-03  8.9990E-01  9.0018E-01
ac ID =   33377                 1.8287E-01 -3.8116E+00  3.1605E-01  3.8291E+00
                               -4.6005E-01  2.4742E+01 -3.9099E+01  2.5147E+03

           1    1.91001E+01    -4.3299E-03  4.7621E-03  9.1633E-01  9.1635E-01
ac ID =   33377                 4.1290E-02 -4.5464E+00 -3.0691E-01  4.5569E+00
                               -4.6095E-01  2.4872E+01 -3.9006E+01  2.5147E+03

           1    1.92001E+01     2.7608E-02 -8.4989E-03  9.4323E-01  9.4367E-01
ac ID =   33377                 4.9662E-01 -3.9990E+00 -5.4388E-01  4.0662E+00
                               -4.6189E-01  2.5003E+01 -3.8915E+01  2.5147E+03

           1    1.93001E+01     1.3394E-03 -1.0130E-03  9.6423E-01  9.6424E-01
ac ID =   33377                 2.7272E-01 -4.9101E+00  1.8476E-02  4.9177E+00
                               -4.6279E-01  2.5134E+01 -3.8826E+01  2.5147E+03

           1    1.94001E+01    -4.0234E-03  1.1548E-02  9.7300E-01  9.7308E-01
ac ID =   33377                -1.2176E-01 -5.2474E+00  3.8557E-01  5.2630E+00
                               -4.6372E-01  2.5266E+01 -3.8740E+01  2.5147E+03

           1    1.95000E+01     4.3840E-03 -6.1624E-03  9.6605E-01  9.6608E-01
ac ID =   33377                 4.4827E-01 -5.5494E+00  7.2979E-02  5.5679E+00
                               -4.6467E-01  2.5398E+01 -3.8656E+01  2.5147E+03

           1    1.96000E+01     3.2224E-03 -3.0102E-03  9.8183E-01  9.8184E-01
ac ID =   33377                 1.8449E-01 -5.7016E+00 -2.1504E-01  5.7087E+00
                               -4.6560E-01  2.5531E+01 -3.8574E+01  2.5147E+03

           1    1.97005E+01    -4.6131E-03 -1.2490E-03  9.9897E-01  9.9898E-01
ac ID =   33377                 3.3242E-01 -5.8741E+00 -4.1476E-01  5.8981E+00
                               -4.6654E-01  2.5666E+01 -3.8494E+01  2.5147E+03

           1    1.98005E+01    -1.1036E-02 -6.7667E-04  9.8453E-01  9.8459E-01
ac ID =   33377                 2.8760E-01 -6.0743E+00 -1.4126E-01  6.0827E+00
                               -4.6750E-01  2.5800E+01 -3.8417E+01  2.5147E+03

           1    1.99005E+01     2.9236E-03  1.8088E-03  9.9125E-01  9.9126E-01
ac ID =   33377                 3.9693E-01 -5.9358E+00  1.0413E-01  5.9500E+00
                               -4.6847E-01  2.5935E+01 -3.8342E+01  2.5147E+03

           1    2.00005E+01    -3.6393E-03 -8.9990E-03  1.0046E+00  1.0047E+00
ac ID =   33377                 3.2484E-01 -6.2400E+00 -2.5009E-02  6.2485E+00
                               -4.6937E-01  2.6071E+01 -3.8269E+01  2.5147E+03

           1    2.01005E+01    -1.3392E-02  7.6357E-03  1.0177E+00  1.0178E+00
ac ID =   33377                 1.7988E-01 -6.6486E+00 -8.8345E-02  6.6516E+00
                               -4.7036E-01  2.6208E+01 -3.8199E+01  2.5147E+03

           1    2.02005E+01    -1.1306E-03 -8.2411E-03  1.0063E+00  1.0064E+00
ac ID =   33377                 3.7187E-01 -6.6450E+00 -3.8417E-01  6.6665E+00
                               -4.7132E-01  2.6345E+01 -3.8131E+01  2.5147E+03

           1    2.03005E+01    -1.8130E-03  6.9907E-03  9.7576E-01  9.7578E-01
ac ID =   33377                -2.0460E-02 -6.6428E+00 -2.7462E-01  6.6485E+00
                               -4.7228E-01  2.6483E+01 -3.8065E+01  2.5147E+03

           1    2.04005E+01    -2.3897E-02 -1.3009E-02  9.8871E-01  9.8908E-01
ac ID =   33377                 4.7133E-01 -7.2495E+00  8.8034E-02  7.2653E+00
                               -4.7324E-01  2.6621E+01 -3.8002E+01  2.5147E+03

           1    2.05004E+01    -1.1936E-03  1.7953E-02  9.8609E-01  9.8626E-01
ac ID =   33377                -1.4323E-01 -7.5037E+00  2.1652E-01  7.5082E+00
                               -4.7427E-01  2.6760E+01 -3.7941E+01  2.5147E+03

           1    2.06004E+01     9.2854E-03 -9.4931E-03  9.5575E-01  9.5585E-01
ac ID =   33377                 4.9267E-01 -7.1748E+00 -2.3877E-02  7.1917E+00
                               -4.7525E-01  2.6900E+01 -3.7882E+01  2.5147E+03

           1    2.07004E+01    -2.3321E-02 -9.9679E-03  9.5578E-01  9.5612E-01
ac ID =   33377                 4.6809E-01 -8.0397E+00 -3.7941E-01  8.0623E+00
                               -4.7622E-01  2.7041E+01 -3.7825E+01  2.5147E+03

           1    2.08004E+01    -1.0931E-02  1.5932E-02  9.5275E-01  9.5294E-01
ac ID =   33377                -4.0396E-02 -7.8712E+00 -3.3592E-01  7.8785E+00
                               -4.7728E-01  2.7182E+01 -3.7771E+01  2.5147E+03

           1    2.09004E+01     4.8001E-03 -1.4797E-02  9.3254E-01  9.3267E-01
ac ID =   33377                 6.1347E-01 -7.6177E+00  1.9101E-02  7.6424E+00
                               -4.7824E-01  2.7324E+01 -3.7719E+01  2.5147E+03

           1    2.10004E+01    -1.0980E-02  7.0984E-04  9.3146E-01  9.3153E-01
ac ID =   33377                 2.7745E-01 -8.2149E+00  3.7547E-01  8.2281E+00
                               -4.7927E-01  2.7466E+01 -3.7669E+01  2.5147E+03

           1    2.11004E+01    -1.8415E-02  1.0862E-02  9.1397E-01  9.1422E-01
ac ID =   33377                 8.5332E-02 -8.3237E+00  2.4903E-02  8.3242E+00
                               -4.8029E-01  2.7609E+01 -3.7621E+01  2.5147E+03

           1    2.12004E+01     3.8606E-03 -5.0089E-03  8.7332E-01  8.7335E-01
ac ID =   33377                 1.3649E-01 -8.3453E+00 -3.8995E-01  8.3555E+00
                               -4.8129E-01  2.7753E+01 -3.7575E+01  2.5147E+03

           1    2.13004E+01     4.0030E-03  2.1065E-04  8.6939E-01  8.6940E-01
ac ID =   33377                 1.1178E-01 -7.9338E+00 -4.0005E-01  7.9447E+00
                               -4.8230E-01  2.7897E+01 -3.7532E+01  2.5147E+03

           1    2.14004E+01    -3.1123E-03 -8.1233E-03  8.4376E-01  8.4381E-01
ac ID =   33377                 3.1377E-01 -8.3432E+00 -2.2024E-02  8.3491E+00
                               -4.8333E-01  2.8041E+01 -3.7490E+01  2.5147E+03

           1    2.15003E+01     2.2989E-02  1.8412E-02  8.0972E-01  8.1026E-01
ac ID =   33377                -9.8599E-02 -7.7527E+00  2.5991E-01  7.7577E+00
                               -4.8440E-01  2.8187E+01 -3.7450E+01  2.5147E+03

           1    2.16003E+01     2.5177E-02 -1.6645E-02  7.8886E-01  7.8943E-01
ac ID =   33377                 7.2089E-01 -7.7406E+00 -3.4068E-02  7.7741E+00
                               -4.8543E-01  2.8332E+01 -3.7412E+01  2.5147E+03

           1    2.17003E+01     1.7761E-02  2.4803E-03  7.7457E-01  7.7478E-01
ac ID =   33377                 1.4490E-01 -8.0884E+00 -1.5985E-01  8.0913E+00
                               -4.8645E-01  2.8478E+01 -3.7376E+01  2.5147E+03

           1    2.18003E+01     2.8563E-02 -6.7339E-03  7.4914E-01  7.4972E-01
ac ID =   33377                 4.6587E-01 -7.7369E+00 -3.6078E-01  7.7593E+00
                               -4.8751E-01  2.8625E+01 -3.7342E+01  2.5147E+03

           1    2.19003E+01     3.7504E-02  1.0589E-03  7.0776E-01  7.0875E-01
ac ID =   33377                 2.4282E-01 -7.8662E+00 -1.4142E-01  7.8712E+00
                               -4.8854E-01  2.8772E+01 -3.7309E+01  2.5147E+03

           1    2.20003E+01     2.5305E-02 -4.6161E-03  6.8255E-01  6.8304E-01
ac ID =   33377                 3.2563E-01 -8.2560E+00  1.2298E-03  8.2624E+00
                               -4.8956E-01  2.8919E+01 -3.7279E+01  2.5147E+03

           1    2.21003E+01     4.4893E-02  2.3668E-03  6.6379E-01  6.6531E-01
ac ID =   33377                 1.9056E-01 -8.3037E+00 -7.9786E-03  8.3059E+00
                               -4.9060E-01  2.9066E+01 -3.7249E+01  2.5147E+03

           1    2.22003E+01     3.4802E-02 -1.4373E-03  6.2628E-01  6.2725E-01
ac ID =   33377                 1.7944E-01 -8.6208E+00 -3.0696E-01  8.6281E+00
                               -4.9164E-01  2.9214E+01 -3.7222E+01  2.5147E+03

           1    2.23003E+01     4.1179E-02 -1.1038E-03  5.8116E-01  5.8262E-01
ac ID =   33377                 1.7919E-01 -8.4984E+00 -2.4498E-01  8.5038E+00
                               -4.9268E-01  2.9362E+01 -3.7195E+01  2.5147E+03

           1    2.24003E+01     5.2944E-02 -8.0450E-04  5.4758E-01  5.5013E-01
ac ID =   33377                 1.4691E-01 -8.8572E+00  3.4603E-02  8.8584E+00
                               -4.9369E-01  2.9510E+01 -3.7170E+01  2.5147E+03

           1    2.25002E+01     4.0077E-02 -2.4349E-02  5.0762E-01  5.0978E-01
ac ID =   33377                 9.7157E-01 -8.9507E+00 -1.0236E-01  9.0038E+00
                               -4.9477E-01  2.9658E+01 -3.7146E+01  2.5147E+03

           1    2.26002E+01     3.5192E-02  9.6778E-03  4.8623E-01  4.8759E-01
ac ID =   33377                -1.2977E-01 -9.6993E+00  5.1817E-02  9.7003E+00
                               -4.9581E-01  2.9807E+01 -3.7124E+01  2.5147E+03

           1    2.27002E+01     3.5264E-02 -3.9029E-03  4.5986E-01  4.6122E-01
ac ID =   33377                 3.8045E-01 -9.7187E+00 -3.4010E-01  9.7321E+00
                               -4.9683E-01  2.9955E+01 -3.7102E+01  2.5147E+03

           1    2.28002E+01     5.1244E-02 -1.7904E-02  3.9018E-01  3.9393E-01
ac ID =   33377                 4.7778E-01 -9.9916E+00 -6.7510E-01  1.0026E+01
                               -4.9776E-01  3.0104E+01 -3.7082E+01  2.5147E+03

           1    2.29002E+01     3.9973E-02 -1.7972E-02  3.5387E-01  3.5658E-01
ac ID =   33377                 5.2647E-01 -9.9873E+00 -4.2998E-01  1.0010E+01
                               -4.9875E-01  3.0253E+01 -3.7062E+01  2.5147E+03

           1    2.30002E+01     4.1790E-02  2.2858E-02  3.4892E-01  3.5215E-01
ac ID =   33377                -2.0980E-01 -1.0773E+01  3.6398E-01  1.0781E+01
                               -4.9983E-01  3.0402E+01 -3.7043E+01  2.5147E+03

           1    2.31002E+01     6.9618E-02 -1.4364E-02  2.8716E-01  2.9583E-01
ac ID =   33377                 3.6303E-01 -1.0243E+01 -2.5578E-01  1.0253E+01
                               -5.0079E-01  3.0550E+01 -3.7025E+01  2.5147E+03

           1    2.32002E+01     3.9841E-02 -1.9799E-02  2.4321E-01  2.4725E-01
ac ID =   33377                 6.5043E-01 -1.1220E+01 -3.2550E-01  1.1243E+01
                               -5.0174E-01  3.0699E+01 -3.7008E+01  2.5147E+03

           1    2.33002E+01     4.6133E-02  4.0294E-03  2.1744E-01  2.2231E-01
ac ID =   33377                 8.5060E-02 -1.1645E+01 -1.5236E-01  1.1646E+01
                               -5.0276E-01  3.0849E+01 -3.6991E+01  2.5147E+03

           1    2.34002E+01     5.7414E-02  8.1546E-03  1.8516E-01  1.9403E-01
ac ID =   33377                 3.3274E-01 -1.1274E+01  1.2682E-01  1.1279E+01
                               -5.0376E-01  3.0998E+01 -3.6974E+01  2.5147E+03

           1    2.35001E+01     6.5904E-02 -1.6554E-02  1.4361E-01  1.5887E-01
ac ID =   33377                 6.6794E-01 -1.1409E+01 -1.9621E-02  1.1429E+01
                               -5.0460E-01  3.1147E+01 -3.6958E+01  2.5147E+03

           1    2.36001E+01     5.3653E-02 -5.2693E-03  8.7939E-02  1.0315E-01
ac ID =   33377                 4.4589E-01 -1.1693E+01  1.3374E-01  1.1702E+01
                               -5.0549E-01  3.1296E+01 -3.6943E+01  2.5147E+03

           1    2.37001E+01     7.0888E-02  2.0671E-03  5.1977E-02  8.7927E-02
ac ID =   33377                 3.5757E-01 -1.1534E+01 -1.8273E-01  1.1541E+01
                               -5.0640E-01  3.1445E+01 -3.6927E+01  2.5147E+03

           1    2.38001E+01     8.0855E-02 -4.2343E-03  3.5768E-02  8.8514E-02
ac ID =   33377                 5.2754E-01 -1.1479E+01 -1.4034E-01  1.1492E+01
                               -5.0726E-01  3.1594E+01 -3.6911E+01  2.5147E+03

           1    2.39001E+01     7.7398E-02  1.8955E-04  1.3179E-03  7.7409E-02
ac ID =   33377                 2.6554E-01 -1.1761E+01 -3.8829E-03  1.1764E+01
                               -5.0805E-01  3.1743E+01 -3.6896E+01  2.5147E+03

           1    2.40001E+01     8.0109E-02 -1.7894E-02 -4.1477E-02  9.1967E-02
ac ID =   33377                 3.7963E-01 -1.1443E+01 -7.6718E-02  1.1450E+01
                               -5.0886E-01  3.1891E+01 -3.6880E+01  2.5147E+03

           1    2.41001E+01     9.9447E-02  1.7729E-03 -8.0371E-02  1.2788E-01
ac ID =   33377                 3.9746E-01 -1.1520E+01  2.5585E-01  1.1530E+01
                               -5.0968E-01  3.2040E+01 -3.6865E+01  2.5147E+03

           1    2.42001E+01     1.0718E-01 -7.7489E-03 -1.0952E-01  1.5343E-01
ac ID =   33377                 3.6755E-01 -1.1325E+01  2.3840E-02  1.1331E+01
                               -5.1044E-01  3.2188E+01 -3.6849E+01  2.5147E+03

           1    2.43001E+01     9.8922E-02  2.4187E-03 -1.3129E-01  1.6440E-01
ac ID =   33377                 2.3805E-01 -1.1441E+01 -1.0614E-01  1.1444E+01
                               -5.1118E-01  3.2336E+01 -3.6833E+01  2.5147E+03

           1    2.44001E+01     1.0638E-01 -1.1983E-02 -1.8474E-01  2.1352E-01
ac ID =   33377                 3.7444E-01 -1.1115E+01  5.1292E-03  1.1121E+01
                               -5.1189E-01  3.2484E+01 -3.6816E+01  2.5147E+03

           1    2.45005E+01     1.2215E-01 -9.9637E-03 -2.2492E-01  2.5614E-01
ac ID =   33377                 5.9969E-01 -1.1023E+01 -2.0589E-01  1.1041E+01
                               -5.1260E-01  3.2632E+01 -3.6799E+01  2.5147E+03

           1    2.46005E+01     1.2535E-01  1.0468E-03 -2.4070E-01  2.7138E-01
ac ID =   33377                -4.4139E-03 -1.0792E+01 -1.3820E-01  1.0793E+01
                               -5.1328E-01  3.2779E+01 -3.6782E+01  2.5147E+03

           1    2.47005E+01     1.4026E-01  5.0110E-03 -2.7701E-01  3.1053E-01
ac ID =   33377                 4.4815E-01 -1.0603E+01 -1.0534E-01  1.0613E+01
                               -5.1397E-01  3.2926E+01 -3.6764E+01  2.5147E+03

           1    2.48005E+01     1.3594E-01 -6.4988E-03 -3.1411E-01  3.4233E-01
ac ID =   33377                 3.8135E-02 -1.0558E+01 -2.3559E-01  1.0561E+01
                               -5.1456E-01  3.3072E+01 -3.6745E+01  2.5147E+03

           1    2.49005E+01     1.4187E-01 -9.1274E-03 -3.3615E-01  3.6498E-01
ac ID =   33377                 5.1002E-01 -1.0543E+01 -4.5106E-01  1.0565E+01
                               -5.1516E-01  3.3218E+01 -3.6726E+01  2.5147E+03

