 LSTC 50th% Full_FE H-III Dummy (Beta Version, February 17, 2019)        
                    ls-dyna smp s R16 R16.0_619_d222963 date 03/18/2025

{BEGIN LEGEND}
 Entity #        Title
    22626                                                                                     
{END LEGEND}




 n o d a l   p r i n t   o u t   f o r   t i m e  s t e p       1                              ( at time 0.0000000E+00 )

 nodal point  x-disp     y-disp      z-disp      x-vel       y-vel       z-vel      x-accl      y-accl      z-accl      x-coor      y-coor      z-coor
    22626  0.00000E+00 0.00000E+00 0.00000E+00 0.00000E+00 0.00000E+00-3.12000E+00 0.00000E+00 0.00000E+00 0.00000E+00 4.79642E+01-2.20298E+01 7.33850E+00



 n o d a l   p r i n t   o u t   f o r   t i m e  s t e p       1                              ( at time 0.0000000E+00 )

 nodal point  x-rot      y-rot       z-rot       x-rot vel   y-rot vel   z-rot vel   x-rot acc   y-rot acc   z-rot acc
    22626  0.00000E+00 0.00000E+00 0.00000E+00 0.00000E+00 0.00000E+00 0.00000E+00 0.00000E+00 0.00000E+00 0.00000E+00



 n o d a l   p r i n t   o u t   f o r   t i m e  s t e p     201                              ( at time 9.9989993E-02 )

 nodal point  x-disp     y-disp      z-disp      x-vel       y-vel       z-vel      x-accl      y-accl      z-accl      x-coor      y-coor      z-coor
    22626  8.34731E-07-4.04334E-06-3.12016E-01 4.76875E-05-4.96319E-04-3.12074E+00 4.76922E-04-4.96368E-03-7.42748E-03 4.79642E+01-2.20298E+01 7.02648E+00



 n o d a l   p r i n t   o u t   f o r   t i m e  s t e p     201                              ( at time 9.9989993E-02 )

 nodal point  x-rot      y-rot       z-rot       x-rot vel   y-rot vel   z-rot vel   x-rot acc   y-rot acc   z-rot acc
    22626  9.61587E-09 3.04270E-08 5.27445E-08 1.30698E-06 2.72345E-06 5.21488E-06 1.30711E-05 2.72373E-05 5.21540E-05



 n o d a l   p r i n t   o u t   f o r   t i m e  s t e p     401                              ( at time 1.9997999E-01 )

 nodal point  x-disp     y-disp      z-disp      x-vel       y-vel       z-vel      x-accl      y-accl      z-accl      x-coor      y-coor      z-coor
    22626 -5.12770E-05-5.21475E-04-6.23853E-01-1.09642E-03-1.11122E-02-3.11558E+00-1.14422E-02-1.06169E-01 5.16204E-02 4.79641E+01-2.20303E+01 6.71465E+00



 n o d a l   p r i n t   o u t   f o r   t i m e  s t e p     401                              ( at time 1.9997999E-01 )

 nodal point  x-rot      y-rot       z-rot       x-rot vel   y-rot vel   z-rot vel   x-rot acc   y-rot acc   z-rot acc
    22626  4.60621E-07 1.33018E-06 2.50303E-06 2.63231E-06 1.90852E-05 3.50115E-05 1.32547E-05 1.63633E-04 2.97996E-04



 n o d a l   p r i n t   o u t   f o r   t i m e  s t e p     601                              ( at time 2.9996998E-01 )

 nodal point  x-disp     y-disp      z-disp      x-vel       y-vel       z-vel      x-accl      y-accl      z-accl      x-coor      y-coor      z-coor
    22626 -2.45246E-05-1.97553E-03-9.35239E-01 1.66322E-03-1.60340E-02-3.11416E+00 2.75992E-02-4.92237E-02 1.42612E-02 4.79642E+01-2.20318E+01 6.40326E+00



 n o d a l   p r i n t   o u t   f o r   t i m e  s t e p     601                              ( at time 2.9996998E-01 )

 nodal point  x-rot      y-rot       z-rot       x-rot vel   y-rot vel   z-rot vel   x-rot acc   y-rot acc   z-rot acc
    22626  6.75351E-07 2.41677E-06 4.83664E-06 8.27819E-06 5.46181E-06 1.48682E-05 5.64645E-05-1.36247E-04-2.01453E-04



 n o d a l   p r i n t   o u t   f o r   t i m e  s t e p     801                              ( at time 3.9995997E-01 )

 nodal point  x-disp     y-disp      z-disp      x-vel       y-vel       z-vel      x-accl      y-accl      z-accl      x-coor      y-coor      z-coor
    22626  5.94628E-05-3.57167E-03-1.24663E+00 1.84437E-04-1.73744E-02-3.11354E+00-1.47894E-02-1.34047E-02 6.12797E-03 4.79642E+01-2.20334E+01 6.09187E+00



 n o d a l   p r i n t   o u t   f o r   t i m e  s t e p     801                              ( at time 3.9995997E-01 )

 nodal point  x-rot      y-rot       z-rot       x-rot vel   y-rot vel   z-rot vel   x-rot acc   y-rot acc   z-rot acc
    22626  1.58445E-06 3.68865E-06 6.69714E-06 6.33011E-06 2.42069E-05 3.82430E-05-1.94827E-05 1.87469E-04 2.33771E-04



 n o d a l   p r i n t   o u t   f o r   t i m e  s t e p    1001                              ( at time 4.9994997E-01 )

 nodal point  x-disp     y-disp      z-disp      x-vel       y-vel       z-vel      x-accl      y-accl      z-accl      x-coor      y-coor      z-coor
    22626  7.16842E-05-5.62703E-03-1.55783E+00 8.83679E-04-2.38166E-02-3.11087E+00 6.99311E-03-6.44290E-02 2.66889E-02 4.79643E+01-2.20354E+01 5.78067E+00



 n o d a l   p r i n t   o u t   f o r   t i m e  s t e p    1001                              ( at time 4.9994997E-01 )

 nodal point  x-rot      y-rot       z-rot       x-rot vel   y-rot vel   z-rot vel   x-rot acc   y-rot acc   z-rot acc
    22626  1.50277E-06 6.66043E-06 1.18604E-05-4.79618E-06 4.39371E-05 7.21581E-05-1.11274E-04 1.97322E-04 3.39185E-04



 n o d a l   p r i n t   o u t   f o r   t i m e  s t e p    1201                              ( at time 5.9993996E-01 )

 nodal point  x-disp     y-disp      z-disp      x-vel       y-vel       z-vel      x-accl      y-accl      z-accl      x-coor      y-coor      z-coor
    22626  5.24641E-05-8.12838E-03-1.86888E+00-5.47245E-04-2.60679E-02-3.11087E+00-1.43107E-02-2.25150E-02 8.10704E-05 4.79642E+01-2.20379E+01 5.46962E+00



 n o d a l   p r i n t   o u t   f o r   t i m e  s t e p    1201                              ( at time 5.9993996E-01 )

 nodal point  x-rot      y-rot       z-rot       x-rot vel   y-rot vel   z-rot vel   x-rot acc   y-rot acc   z-rot acc
    22626  1.27037E-06 9.91309E-06 1.78047E-05-2.07937E-06 2.65846E-05 5.34735E-05 2.71709E-05-1.73542E-04-1.86865E-04



 n o d a l   p r i n t   o u t   f o r   t i m e  s t e p    1401                              ( at time 6.9992995E-01 )

 nodal point  x-disp     y-disp      z-disp      x-vel       y-vel       z-vel      x-accl      y-accl      z-accl      x-coor      y-coor      z-coor
    22626  1.93970E-05-1.10072E-02-2.17977E+00 6.96027E-04-3.21967E-02-3.10773E+00 1.24340E-02-6.12944E-02 3.13170E-02 4.79642E+01-2.20408E+01 5.15873E+00



 n o d a l   p r i n t   o u t   f o r   t i m e  s t e p    1401                              ( at time 6.9992995E-01 )

 nodal point  x-rot      y-rot       z-rot       x-rot vel   y-rot vel   z-rot vel   x-rot acc   y-rot acc   z-rot acc
    22626  1.13038E-06 1.31188E-05 2.28050E-05-2.13532E-06 3.77297E-05 5.91621E-05-5.59523E-07 1.11462E-04 5.68920E-05



 n o d a l   p r i n t   o u t   f o r   t i m e  s t e p    1601                              ( at time 7.9991994E-01 )

 nodal point  x-disp     y-disp      z-disp      x-vel       y-vel       z-vel      x-accl      y-accl      z-accl      x-coor      y-coor      z-coor
    22626  1.30834E-04-1.45519E-02-2.49040E+00 1.35463E-03-3.67473E-02-3.10605E+00 6.58671E-03-4.55098E-02 1.68340E-02 4.79643E+01-2.20443E+01 4.84811E+00



 n o d a l   p r i n t   o u t   f o r   t i m e  s t e p    1601                              ( at time 7.9991994E-01 )

 nodal point  x-rot      y-rot       z-rot       x-rot vel   y-rot vel   z-rot vel   x-rot acc   y-rot acc   z-rot acc
    22626  1.06482E-06 1.72669E-05 2.97855E-05 3.18751E-06 4.89966E-05 7.67791E-05 5.32336E-05 1.12680E-04 1.76187E-04



 n o d a l   p r i n t   o u t   f o r   t i m e  s t e p    1801                              ( at time 8.9990994E-01 )

 nodal point  x-disp     y-disp      z-disp      x-vel       y-vel       z-vel      x-accl      y-accl      z-accl      x-coor      y-coor      z-coor
    22626  2.03662E-04-1.81877E-02-2.80106E+00-5.17605E-04-3.63549E-02-3.10747E+00-1.87243E-02 3.92435E-03-1.41921E-02 4.79644E+01-2.20480E+01 4.53745E+00



 n o d a l   p r i n t   o u t   f o r   t i m e  s t e p    1801                              ( at time 8.9990994E-01 )

 nodal point  x-rot      y-rot       z-rot       x-rot vel   y-rot vel   z-rot vel   x-rot acc   y-rot acc   z-rot acc
    22626  1.12129E-06 2.14074E-05 3.68240E-05-1.43489E-06 3.81395E-05 6.87514E-05-4.62287E-05-1.08581E-04-8.02850E-05



 n o d a l   p r i n t   o u t   f o r   t i m e  s t e p    2001                              ( at time 9.9989993E-01 )

 nodal point  x-disp     y-disp      z-disp      x-vel       y-vel       z-vel      x-accl      y-accl      z-accl      x-coor      y-coor      z-coor
    22626  1.04467E-04-2.18902E-02-3.11178E+00-8.39773E-04-3.82604E-02-3.10767E+00-3.22199E-03-1.90578E-02-1.97907E-03 4.79643E+01-2.20517E+01 4.22672E+00



 n o d a l   p r i n t   o u t   f o r   t i m e  s t e p    2001                              ( at time 9.9989993E-01 )

 nodal point  x-rot      y-rot       z-rot       x-rot vel   y-rot vel   z-rot vel   x-rot acc   y-rot acc   z-rot acc
    22626  1.00231E-06 2.56528E-05 4.40847E-05-2.71644E-07 4.65715E-05 8.66278E-05 1.16336E-05 8.43279E-05 1.78783E-04



 n o d a l   p r i n t   o u t   f o r   t i m e  s t e p    2201                              ( at time 1.0998899E+00 )

 nodal point  x-disp     y-disp      z-disp      x-vel       y-vel       z-vel      x-accl      y-accl      z-accl      x-coor      y-coor      z-coor
    22626  8.38181E-05-2.58253E-02-3.42249E+00-2.53682E-04-4.01540E-02-3.10719E+00 5.86150E-03-1.89371E-02 4.78793E-03 4.79643E+01-2.20556E+01 3.91601E+00



 n o d a l   p r i n t   o u t   f o r   t i m e  s t e p    2201                              ( at time 1.0998899E+00 )

 nodal point  x-rot      y-rot       z-rot       x-rot vel   y-rot vel   z-rot vel   x-rot acc   y-rot acc   z-rot acc
    22626  1.13672E-06 3.04637E-05 5.27773E-05 5.98409E-06 4.63717E-05 7.50808E-05 6.25636E-05-1.99818E-06-1.15482E-04



 n o d a l   p r i n t   o u t   f o r   t i m e  s t e p    2401                              ( at time 1.1998799E+00 )

 nodal point  x-disp     y-disp      z-disp      x-vel       y-vel       z-vel      x-accl      y-accl      z-accl      x-coor      y-coor      z-coor
    22626  1.22680E-04-2.98293E-02-3.73324E+00 7.02977E-04-3.96486E-02-3.10859E+00 9.56755E-03 5.05386E-03-1.40323E-02 4.79643E+01-2.20596E+01 3.60526E+00



 n o d a l   p r i n t   o u t   f o r   t i m e  s t e p    2401                              ( at time 1.1998799E+00 )

 nodal point  x-rot      y-rot       z-rot       x-rot vel   y-rot vel   z-rot vel   x-rot acc   y-rot acc   z-rot acc
    22626  1.59899E-06 3.46352E-05 5.96751E-05 5.72556E-06 4.01847E-05 6.62659E-05-2.58556E-06-6.18759E-05-8.81575E-05



 n o d a l   p r i n t   o u t   f o r   t i m e  s t e p    2601                              ( at time 1.2998699E+00 )

 nodal point  x-disp     y-disp      z-disp      x-vel       y-vel       z-vel      x-accl      y-accl      z-accl      x-coor      y-coor      z-coor
    22626  1.32443E-04-3.36527E-02-4.04418E+00-4.49023E-04-3.64419E-02-3.11144E+00-1.15212E-02 3.20706E-02-2.85106E-02 4.79643E+01-2.20634E+01 3.29432E+00



 n o d a l   p r i n t   o u t   f o r   t i m e  s t e p    2601                              ( at time 1.2998699E+00 )

 nodal point  x-rot      y-rot       z-rot       x-rot vel   y-rot vel   z-rot vel   x-rot acc   y-rot acc   z-rot acc
    22626  1.97658E-06 3.87644E-05 6.65881E-05-1.71540E-06 4.59000E-05 8.07993E-05-7.44170E-05 5.71588E-05 1.45348E-04



 n o d a l   p r i n t   o u t   f o r   t i m e  s t e p    2801                              ( at time 1.3998599E+00 )

 nodal point  x-disp     y-disp      z-disp      x-vel       y-vel       z-vel      x-accl      y-accl      z-accl      x-coor      y-coor      z-coor
    22626  1.44695E-05-3.70306E-02-4.35550E+00-1.33754E-03-3.12554E-02-3.11524E+00-8.88607E-03 5.18700E-02-3.80006E-02 4.79642E+01-2.20668E+01 2.98300E+00



 n o d a l   p r i n t   o u t   f o r   t i m e  s t e p    2801                              ( at time 1.3998599E+00 )

 nodal point  x-rot      y-rot       z-rot       x-rot vel   y-rot vel   z-rot vel   x-rot acc   y-rot acc   z-rot acc
    22626  1.64046E-06 4.32092E-05 7.45213E-05-3.76808E-06 4.51506E-05 7.44092E-05-2.05289E-05-7.49469E-06-6.39073E-05



 n o d a l   p r i n t   o u t   f o r   t i m e  s t e p    3001                              ( at time 1.4998499E+00 )

 nodal point  x-disp     y-disp      z-disp      x-vel       y-vel       z-vel      x-accl      y-accl      z-accl      x-coor      y-coor      z-coor
    22626 -9.69921E-05-4.00562E-02-4.66710E+00-4.85571E-04-2.95764E-02-3.11726E+00 8.52056E-03 1.67922E-02-2.01293E-02 4.79641E+01-2.20698E+01 2.67140E+00



 n o d a l   p r i n t   o u t   f o r   t i m e  s t e p    3001                              ( at time 1.4998499E+00 )

 nodal point  x-rot      y-rot       z-rot       x-rot vel   y-rot vel   z-rot vel   x-rot acc   y-rot acc   z-rot acc
    22626  1.34827E-06 4.71839E-05 8.11834E-05-4.42185E-07 3.24888E-05 5.83379E-05 3.32623E-05-1.26631E-04-1.60729E-04



 n o d a l   p r i n t   o u t   f o r   t i m e  s t e p    3201                              ( at time 1.5998399E+00 )

 nodal point  x-disp     y-disp      z-disp      x-vel       y-vel       z-vel      x-accl      y-accl      z-accl      x-coor      y-coor      z-coor
    22626 -1.47358E-04-4.29307E-02-4.97888E+00-7.77822E-04-2.73552E-02-3.11954E+00-2.92281E-03 2.22133E-02-2.28404E-02 4.79640E+01-2.20727E+01 2.35962E+00



 n o d a l   p r i n t   o u t   f o r   t i m e  s t e p    3201                              ( at time 1.5998399E+00 )

 nodal point  x-rot      y-rot       z-rot       x-rot vel   y-rot vel   z-rot vel   x-rot acc   y-rot acc   z-rot acc
    22626  1.16220E-06 5.02661E-05 8.61410E-05-3.33765E-07 3.26488E-05 4.85838E-05 1.08431E-06 1.59971E-06-9.75509E-05



 n o d a l   p r i n t   o u t   f o r   t i m e  s t e p    3401                              ( at time 1.6998299E+00 )

 nodal point  x-disp     y-disp      z-disp      x-vel       y-vel       z-vel      x-accl      y-accl      z-accl      x-coor      y-coor      z-coor
    22626 -2.37989E-04-4.54297E-02-5.29099E+00-1.14411E-03-2.22886E-02-3.12336E+00-3.66326E-03 5.06717E-02-3.81985E-02 4.79639E+01-2.20752E+01 2.04751E+00



 n o d a l   p r i n t   o u t   f o r   t i m e  s t e p    3401                              ( at time 1.6998299E+00 )

 nodal point  x-rot      y-rot       z-rot       x-rot vel   y-rot vel   z-rot vel   x-rot acc   y-rot acc   z-rot acc
    22626  1.05134E-06 5.34030E-05 9.12643E-05-3.06606E-06 3.08713E-05 4.90794E-05-2.73257E-05-1.77769E-05 4.95670E-06



 n o d a l   p r i n t   o u t   f o r   t i m e  s t e p    3601                              ( at time 1.7998199E+00 )

 nodal point  x-disp     y-disp      z-disp      x-vel       y-vel       z-vel      x-accl      y-accl      z-accl      x-coor      y-coor      z-coor
    22626 -3.40595E-04-4.74031E-02-5.60351E+00-1.35088E-03-1.75428E-02-3.12744E+00-2.06794E-03 4.74625E-02-4.08619E-02 4.79638E+01-2.20772E+01 1.73499E+00



 n o d a l   p r i n t   o u t   f o r   t i m e  s t e p    3601                              ( at time 1.7998199E+00 )

 nodal point  x-rot      y-rot       z-rot       x-rot vel   y-rot vel   z-rot vel   x-rot acc   y-rot acc   z-rot acc
    22626  1.00610E-06 5.62657E-05 9.61470E-05 8.62747E-07 2.20174E-05 4.35299E-05 3.92921E-05-8.85478E-05-5.55006E-05



 n o d a l   p r i n t   o u t   f o r   t i m e  s t e p    3801                              ( at time 1.8998099E+00 )

 nodal point  x-disp     y-disp      z-disp      x-vel       y-vel       z-vel      x-accl      y-accl      z-accl      x-coor      y-coor      z-coor
    22626 -5.30081E-04-4.90215E-02-5.91634E+00-2.15651E-03-1.49895E-02-3.13000E+00-8.05709E-03 2.55361E-02-2.55229E-02 4.79636E+01-2.20788E+01 1.42216E+00



 n o d a l   p r i n t   o u t   f o r   t i m e  s t e p    3801                              ( at time 1.8998099E+00 )

 nodal point  x-rot      y-rot       z-rot       x-rot vel   y-rot vel   z-rot vel   x-rot acc   y-rot acc   z-rot acc
    22626  8.91893E-07 5.82247E-05 9.96825E-05 2.88776E-06 1.63231E-05 2.87153E-05 2.02522E-05-5.69483E-05-1.48160E-04



 n o d a l   p r i n t   o u t   f o r   t i m e  s t e p    4001                              ( at time 1.9997999E+00 )

 nodal point  x-disp     y-disp      z-disp      x-vel       y-vel       z-vel      x-accl      y-accl      z-accl      x-coor      y-coor      z-coor
    22626 -7.02535E-04-5.03972E-02-6.22943E+00-1.65206E-03-1.26783E-02-3.13220E+00 5.04507E-03 2.31137E-02-2.20225E-02 4.79635E+01-2.20802E+01 1.10907E+00



 n o d a l   p r i n t   o u t   f o r   t i m e  s t e p    4001                              ( at time 1.9997999E+00 )

 nodal point  x-rot      y-rot       z-rot       x-rot vel   y-rot vel   z-rot vel   x-rot acc   y-rot acc   z-rot acc
    22626  1.20093E-06 5.96476E-05 1.02122E-04 4.51697E-06 1.37103E-05 2.05883E-05 1.62937E-05-2.61311E-05-8.12788E-05



 n o d a l   p r i n t   o u t   f o r   t i m e  s t e p    4201                              ( at time 2.0997899E+00 )

 nodal point  x-disp     y-disp      z-disp      x-vel       y-vel       z-vel      x-accl      y-accl      z-accl      x-coor      y-coor      z-coor
    22626 -8.73472E-04-5.14776E-02-6.54278E+00-1.88200E-03-9.03878E-03-3.13528E+00-2.29968E-03 3.63991E-02-3.08044E-02 4.79633E+01-2.20813E+01 7.95721E-01



 n o d a l   p r i n t   o u t   f o r   t i m e  s t e p    4201                              ( at time 2.0997899E+00 )

 nodal point  x-rot      y-rot       z-rot       x-rot vel   y-rot vel   z-rot vel   x-rot acc   y-rot acc   z-rot acc
    22626  1.59362E-06 6.03129E-05 1.03278E-04-1.67508E-07 3.65024E-06 2.13110E-06-4.68495E-05-1.00610E-04-1.84590E-04



 n o d a l   p r i n t   o u t   f o r   t i m e  s t e p    4401                              ( at time 2.1997798E+00 )

 nodal point  x-disp     y-disp      z-disp      x-vel       y-vel       z-vel      x-accl      y-accl      z-accl      x-coor      y-coor      z-coor
    22626 -1.11499E-03-5.21511E-02-6.85645E+00-2.72462E-03-4.25014E-03-3.13906E+00-8.42705E-03 4.78912E-02-3.78170E-02 4.79631E+01-2.20819E+01 4.82047E-01



 n o d a l   p r i n t   o u t   f o r   t i m e  s t e p    4401                              ( at time 2.1997798E+00 )

 nodal point  x-rot      y-rot       z-rot       x-rot vel   y-rot vel   z-rot vel   x-rot acc   y-rot acc   z-rot acc
    22626  1.52001E-06 6.04090E-05 1.03357E-04-3.78399E-07-1.04352E-06-1.30761E-06-2.10913E-06-4.69424E-05-3.43906E-05



 n o d a l   p r i n t   o u t   f o r   t i m e  s t e p    4601                              ( at time 2.2997698E+00 )

 nodal point  x-disp     y-disp      z-disp      x-vel       y-vel       z-vel      x-accl      y-accl      z-accl      x-coor      y-coor      z-coor
    22626 -1.42102E-03-5.23317E-02-7.17051E+00-3.48686E-03 2.46511E-05-3.14239E+00-7.62315E-03 4.27521E-02-3.33366E-02 4.79628E+01-2.20821E+01 1.67987E-01



 n o d a l   p r i n t   o u t   f o r   t i m e  s t e p    4601                              ( at time 2.2997698E+00 )

 nodal point  x-rot      y-rot       z-rot       x-rot vel   y-rot vel   z-rot vel   x-rot acc   y-rot acc   z-rot acc
    22626  1.20394E-06 6.01879E-05 1.03118E-04-3.75507E-06-9.00421E-06-1.15787E-05-3.37700E-05-7.96148E-05-1.02721E-04



 n o d a l   p r i n t   o u t   f o r   t i m e  s t e p    4801                              ( at time 2.3997598E+00 )

 nodal point  x-disp     y-disp      z-disp      x-vel       y-vel       z-vel      x-accl      y-accl      z-accl      x-coor      y-coor      z-coor
    22626 -1.78744E-03-5.22332E-02-7.48482E+00-3.55880E-03 1.94130E-03-3.14448E+00-7.19482E-04 1.91684E-02-2.08542E-02 4.79624E+01-2.20820E+01-1.46323E-01



 n o d a l   p r i n t   o u t   f o r   t i m e  s t e p    4801                              ( at time 2.3997598E+00 )

 nodal point  x-rot      y-rot       z-rot       x-rot vel   y-rot vel   z-rot vel   x-rot acc   y-rot acc   z-rot acc
    22626  7.76050E-07 5.89766E-05 1.00715E-04-4.71912E-06-1.52498E-05-3.26562E-05-9.64147E-06-6.24618E-05-2.10797E-04



 n o d a l   p r i n t   o u t   f o r   t i m e  s t e p    5001                              ( at time 2.4997498E+00 )

 nodal point  x-disp     y-disp      z-disp      x-vel       y-vel       z-vel      x-accl      y-accl      z-accl      x-coor      y-coor      z-coor
    22626 -2.17683E-03-5.19204E-02-7.79936E+00-4.22819E-03 5.01093E-03-3.14718E+00-6.69453E-03 3.06993E-02-2.69893E-02 4.79620E+01-2.20817E+01-4.60856E-01



 n o d a l   p r i n t   o u t   f o r   t i m e  s t e p    5001                              ( at time 2.4997498E+00 )

 nodal point  x-rot      y-rot       z-rot       x-rot vel   y-rot vel   z-rot vel   x-rot acc   y-rot acc   z-rot acc
    22626  4.35309E-07 5.68171E-05 9.68461E-05-3.21797E-06-2.60209E-05-4.76547E-05 1.50130E-05-1.07722E-04-1.49999E-04



 n o d a l   p r i n t   o u t   f o r   t i m e  s t e p    5201                              ( at time 2.5997398E+00 )

 nodal point  x-disp     y-disp      z-disp      x-vel       y-vel       z-vel      x-accl      y-accl      z-accl      x-coor      y-coor      z-coor
    22626 -2.64778E-03-5.11959E-02-8.11423E+00-5.21700E-03 9.43203E-03-3.15082E+00-9.88916E-03 4.42155E-02-3.64221E-02 4.79615E+01-2.20810E+01-7.75730E-01



 n o d a l   p r i n t   o u t   f o r   t i m e  s t e p    5201                              ( at time 2.5997398E+00 )

 nodal point  x-rot      y-rot       z-rot       x-rot vel   y-rot vel   z-rot vel   x-rot acc   y-rot acc   z-rot acc
    22626  1.43527E-07 5.37953E-05 9.15534E-05-3.78399E-06-3.49121E-05-6.09065E-05-5.66081E-06-8.89214E-05-1.32531E-04



 n o d a l   p r i n t   o u t   f o r   t i m e  s t e p    5401                              ( at time 2.6997298E+00 )

 nodal point  x-disp     y-disp      z-disp      x-vel       y-vel       z-vel      x-accl      y-accl      z-accl      x-coor      y-coor      z-coor
    22626 -3.21299E-03-5.00472E-02-8.42946E+00-6.35841E-03 1.30697E-02-3.15425E+00-1.14152E-02 3.63807E-02-3.43214E-02 4.79610E+01-2.20798E+01-1.09096E+00



 n o d a l   p r i n t   o u t   f o r   t i m e  s t e p    5401                              ( at time 2.6997298E+00 )

 nodal point  x-rot      y-rot       z-rot       x-rot vel   y-rot vel   z-rot vel   x-rot acc   y-rot acc   z-rot acc
    22626 -9.69459E-08 5.01494E-05 8.51916E-05-1.22989E-06-4.07315E-05-6.59309E-05 2.55435E-05-5.81995E-05-5.02496E-05



 n o d a l   p r i n t   o u t   f o r   t i m e  s t e p    5601                              ( at time 2.7997198E+00 )

 nodal point  x-disp     y-disp      z-disp      x-vel       y-vel       z-vel      x-accl      y-accl      z-accl      x-coor      y-coor      z-coor
    22626 -3.91905E-03-4.86166E-02-8.74497E+00-7.58158E-03 1.52265E-02-3.15644E+00-1.22329E-02 2.15700E-02-2.19105E-02 4.79603E+01-2.20784E+01-1.40647E+00



 n o d a l   p r i n t   o u t   f o r   t i m e  s t e p    5601                              ( at time 2.7997198E+00 )

 nodal point  x-rot      y-rot       z-rot       x-rot vel   y-rot vel   z-rot vel   x-rot acc   y-rot acc   z-rot acc
    22626 -1.49603E-07 4.53365E-05 7.72091E-05 1.21965E-06-5.63907E-05-9.69056E-05 2.44979E-05-1.56607E-04-3.09778E-04



 n o d a l   p r i n t   o u t   f o r   t i m e  s t e p    5801                              ( at time 2.8997098E+00 )

 nodal point  x-disp     y-disp      z-disp      x-vel       y-vel       z-vel      x-accl      y-accl      z-accl      x-coor      y-coor      z-coor
    22626 -4.68245E-03-4.70382E-02-9.06067E+00-7.77068E-03 1.62334E-02-3.15813E+00-1.89122E-03 1.00696E-02-1.68770E-02 4.79595E+01-2.20768E+01-1.72217E+00



 n o d a l   p r i n t   o u t   f o r   t i m e  s t e p    5801                              ( at time 2.8997098E+00 )

 nodal point  x-rot      y-rot       z-rot       x-rot vel   y-rot vel   z-rot vel   x-rot acc   y-rot acc   z-rot acc
    22626  1.27075E-07 3.89982E-05 6.64601E-05 3.05084E-06-6.59811E-05-1.14441E-04 1.83137E-05-9.59137E-05-1.75370E-04



 n o d a l   p r i n t   o u t   f o r   t i m e  s t e p    6001                              ( at time 2.9996998E+00 )

 nodal point  x-disp     y-disp      z-disp      x-vel       y-vel       z-vel      x-accl      y-accl      z-accl      x-coor      y-coor      z-coor
    22626 -5.49946E-03-4.52999E-02-9.37656E+00-8.81078E-03 1.87048E-02-3.16049E+00-1.04020E-02 2.47167E-02-2.36010E-02 4.79587E+01-2.20751E+01-2.03806E+00



 n o d a l   p r i n t   o u t   f o r   t i m e  s t e p    6001                              ( at time 2.9996998E+00 )

 nodal point  x-rot      y-rot       z-rot       x-rot vel   y-rot vel   z-rot vel   x-rot acc   y-rot acc   z-rot acc
    22626  4.41012E-07 3.21847E-05 5.49789E-05 1.48252E-06-7.01760E-05-1.19818E-04-1.56847E-05-4.19536E-05-5.37786E-05



 n o d a l   p r i n t   o u t   f o r   t i m e  s t e p    6201                              ( at time 3.0996898E+00 )

 nodal point  x-disp     y-disp      z-disp      x-vel       y-vel       z-vel      x-accl      y-accl      z-accl      x-coor      y-coor      z-coor
    22626 -6.45711E-03-4.33055E-02-9.69269E+00-1.02698E-02 2.07327E-02-3.16248E+00-1.45917E-02 2.02812E-02-1.98790E-02 4.79577E+01-2.20731E+01-2.35419E+00



 n o d a l   p r i n t   o u t   f o r   t i m e  s t e p    6201                              ( at time 3.0996898E+00 )

 nodal point  x-rot      y-rot       z-rot       x-rot vel   y-rot vel   z-rot vel   x-rot acc   y-rot acc   z-rot acc
    22626  4.50169E-07 2.49673E-05 4.25649E-05-1.66979E-06-7.38034E-05-1.30553E-04-3.15264E-05-3.62774E-05-1.07355E-04



 n o d a l   p r i n t   o u t   f o r   t i m e  s t e p    6401                              ( at time 3.1996798E+00 )

 nodal point  x-disp     y-disp      z-disp      x-vel       y-vel       z-vel      x-accl      y-accl      z-accl      x-coor      y-coor      z-coor
    22626 -7.51704E-03-4.12620E-02-1.00090E+01-1.08602E-02 1.98337E-02-3.16308E+00-5.90412E-03-8.99167E-03-6.00159E-03 4.79567E+01-2.20711E+01-2.67045E+00



 n o d a l   p r i n t   o u t   f o r   t i m e  s t e p    6401                              ( at time 3.1996798E+00 )

 nodal point  x-rot      y-rot       z-rot       x-rot vel   y-rot vel   z-rot vel   x-rot acc   y-rot acc   z-rot acc
    22626  3.55554E-07 1.70032E-05 2.91443E-05-9.08388E-07-8.50180E-05-1.42892E-04 7.61480E-06-1.12157E-04-1.23403E-04



 n o d a l   p r i n t   o u t   f o r   t i m e  s t e p    6601                              ( at time 3.2996698E+00 )

 nodal point  x-disp     y-disp      z-disp      x-vel       y-vel       z-vel      x-accl      y-accl      z-accl      x-coor      y-coor      z-coor
    22626 -8.61558E-03-3.93746E-02-1.03252E+01-1.10899E-02 1.79144E-02-3.16277E+00-2.29739E-03-1.91942E-02 3.09260E-03 4.79556E+01-2.20692E+01-2.98671E+00



 n o d a l   p r i n t   o u t   f o r   t i m e  s t e p    6601                              ( at time 3.2996698E+00 )

 nodal point  x-rot      y-rot       z-rot       x-rot vel   y-rot vel   z-rot vel   x-rot acc   y-rot acc   z-rot acc
    22626  1.48810E-07 8.37125E-06 1.45037E-05-2.22630E-06-8.82472E-05-1.49730E-04-1.31805E-05-3.22947E-05-6.83951E-05



 n o d a l   p r i n t   o u t   f o r   t i m e  s t e p    6801                              ( at time 3.3996598E+00 )

 nodal point  x-disp     y-disp      z-disp      x-vel       y-vel       z-vel      x-accl      y-accl      z-accl      x-coor      y-coor      z-coor
    22626 -9.75281E-03-3.76730E-02-1.06415E+01-1.15903E-02 1.61296E-02-3.16269E+00-5.00479E-03-1.78498E-02 7.72552E-04 4.79544E+01-2.20675E+01-3.30295E+00



 n o d a l   p r i n t   o u t   f o r   t i m e  s t e p    6801                              ( at time 3.3996598E+00 )

 nodal point  x-rot      y-rot       z-rot       x-rot vel   y-rot vel   z-rot vel   x-rot acc   y-rot acc   z-rot acc
    22626  1.29011E-07-3.87386E-07-5.95536E-07-1.99881E-06-8.73588E-05-1.51738E-04 2.27517E-06 8.88438E-06-2.00806E-05



 n o d a l   p r i n t   o u t   f o r   t i m e  s t e p    7001                              ( at time 3.4996498E+00 )

 nodal point  x-disp     y-disp      z-disp      x-vel       y-vel       z-vel      x-accl      y-accl      z-accl      x-coor      y-coor      z-coor
    22626 -1.09459E-02-3.61295E-02-1.09577E+01-1.22751E-02 1.47118E-02-3.16297E+00-6.84886E-03-1.41798E-02-2.84224E-03 4.79532E+01-2.20659E+01-3.61921E+00



 n o d a l   p r i n t   o u t   f o r   t i m e  s t e p    7001                              ( at time 3.4996498E+00 )

 nodal point  x-rot      y-rot       z-rot       x-rot vel   y-rot vel   z-rot vel   x-rot acc   y-rot acc   z-rot acc
    22626  2.10174E-07-8.98631E-06-1.52772E-05 1.11190E-06-8.64188E-05-1.45860E-04 3.11102E-05 9.40134E-06 5.87922E-05



 n o d a l   p r i n t   o u t   f o r   t i m e  s t e p    7201                              ( at time 3.5996397E+00 )

 nodal point  x-disp     y-disp      z-disp      x-vel       y-vel       z-vel      x-accl      y-accl      z-accl      x-coor      y-coor      z-coor
    22626 -1.21898E-02-3.47675E-02-1.12740E+01-1.22701E-02 1.21887E-02-3.16267E+00 4.97656E-05-2.52335E-02 3.07353E-03 4.79520E+01-2.20646E+01-3.93546E+00



 n o d a l   p r i n t   o u t   f o r   t i m e  s t e p    7201                              ( at time 3.5996397E+00 )

 nodal point  x-rot      y-rot       z-rot       x-rot vel   y-rot vel   z-rot vel   x-rot acc   y-rot acc   z-rot acc
    22626  1.90950E-07-1.74451E-05-2.95037E-05 1.82524E-06-8.32508E-05-1.36624E-04 7.13411E-06 3.16830E-05 9.23664E-05



 n o d a l   p r i n t   o u t   f o r   t i m e  s t e p    7401                              ( at time 3.6996297E+00 )

 nodal point  x-disp     y-disp      z-disp      x-vel       y-vel       z-vel      x-accl      y-accl      z-accl      x-coor      y-coor      z-coor
    22626 -1.34050E-02-3.37185E-02-1.15901E+01-1.19806E-02 8.81853E-03-3.16168E+00 2.89542E-03-3.37050E-02 9.87389E-03 4.79508E+01-2.20635E+01-4.25165E+00



 n o d a l   p r i n t   o u t   f o r   t i m e  s t e p    7401                              ( at time 3.6996297E+00 )

 nodal point  x-rot      y-rot       z-rot       x-rot vel   y-rot vel   z-rot vel   x-rot acc   y-rot acc   z-rot acc
    22626  5.07402E-07-2.56547E-05-4.31410E-05 4.76029E-06-8.05853E-05-1.35182E-04 2.93535E-05 2.66574E-05 1.44196E-05



 n o d a l   p r i n t   o u t   f o r   t i m e  s t e p    7601                              ( at time 3.7996197E+00 )

 nodal point  x-disp     y-disp      z-disp      x-vel       y-vel       z-vel      x-accl      y-accl      z-accl      x-coor      y-coor      z-coor
    22626 -1.45780E-02-3.29671E-02-1.19062E+01-1.15050E-02 6.17310E-03-3.16100E+00 4.75706E-03-2.64569E-02 6.81231E-03 4.79496E+01-2.20628E+01-4.56775E+00



 n o d a l   p r i n t   o u t   f o r   t i m e  s t e p    7601                              ( at time 3.7996197E+00 )

 nodal point  x-rot      y-rot       z-rot       x-rot vel   y-rot vel   z-rot vel   x-rot acc   y-rot acc   z-rot acc
    22626  1.01034E-06-3.33704E-05-5.62380E-05 5.51033E-06-7.10915E-05-1.19910E-04 7.50111E-06 9.49480E-05 1.52740E-04



 n o d a l   p r i n t   o u t   f o r   t i m e  s t e p    7801                              ( at time 3.8996097E+00 )

 nodal point  x-disp     y-disp      z-disp      x-vel       y-vel       z-vel      x-accl      y-accl      z-accl      x-coor      y-coor      z-coor
    22626 -1.56978E-02-3.24542E-02-1.22223E+01-1.08607E-02 4.35121E-03-3.16093E+00 6.44315E-03-1.82207E-02 7.22480E-04 4.79485E+01-2.20622E+01-4.88381E+00



 n o d a l   p r i n t   o u t   f o r   t i m e  s t e p    7801                              ( at time 3.8996097E+00 )

 nodal point  x-rot      y-rot       z-rot       x-rot vel   y-rot vel   z-rot vel   x-rot acc   y-rot acc   z-rot acc
    22626  1.40743E-06-3.98724E-05-6.71777E-05 1.41711E-06-5.68690E-05-9.39653E-05-4.09362E-05 1.42239E-04 2.59470E-04



 n o d a l   p r i n t   o u t   f o r   t i m e  s t e p    8001                              ( at time 3.9995997E+00 )

 nodal point  x-disp     y-disp      z-disp      x-vel       y-vel       z-vel      x-accl      y-accl      z-accl      x-coor      y-coor      z-coor
    22626 -1.67564E-02-3.20637E-02-1.25384E+01-1.02746E-02 3.36113E-03-3.16124E+00 5.86197E-03-9.90184E-03-3.16413E-03 4.79474E+01-2.20619E+01-5.19989E+00



 n o d a l   p r i n t   o u t   f o r   t i m e  s t e p    8001                              ( at time 3.9995997E+00 )

 nodal point  x-rot      y-rot       z-rot       x-rot vel   y-rot vel   z-rot vel   x-rot acc   y-rot acc   z-rot acc
    22626  1.58064E-06-4.50048E-05-7.56504E-05-3.98514E-08-4.49540E-05-7.77050E-05-1.45711E-05 1.19161E-04 1.62619E-04



 n o d a l   p r i n t   o u t   f o r   t i m e  s t e p    8201                              ( at time 4.0995897E+00 )

 nodal point  x-disp     y-disp      z-disp      x-vel       y-vel       z-vel      x-accl      y-accl      z-accl      x-coor      y-coor      z-coor
    22626 -1.77001E-02-3.18494E-02-1.28545E+01-8.48159E-03 7.41496E-04-3.16077E+00 1.79317E-02-2.61989E-02 4.74023E-03 4.79465E+01-2.20616E+01-5.51596E+00



 n o d a l   p r i n t   o u t   f o r   t i m e  s t e p    8201                              ( at time 4.0995897E+00 )

 nodal point  x-rot      y-rot       z-rot       x-rot vel   y-rot vel   z-rot vel   x-rot acc   y-rot acc   z-rot acc
    22626  1.61910E-06-4.90165E-05-8.24368E-05 6.96922E-07-3.19420E-05-5.54077E-05 7.36846E-06 1.30133E-04 2.22996E-04



 n o d a l   p r i n t   o u t   f o r   t i m e  s t e p    8401                              ( at time 4.1995797E+00 )

 nodal point  x-disp     y-disp      z-disp      x-vel       y-vel       z-vel      x-accl      y-accl      z-accl      x-coor      y-coor      z-coor
    22626 -1.84677E-02-3.18990E-02-1.31705E+01-6.85694E-03-1.62700E-03-3.16015E+00 1.62481E-02-2.36874E-02 6.22097E-03 4.79457E+01-2.20617E+01-5.83197E+00



 n o d a l   p r i n t   o u t   f o r   t i m e  s t e p    8401                              ( at time 4.1995797E+00 )

 nodal point  x-rot      y-rot       z-rot       x-rot vel   y-rot vel   z-rot vel   x-rot acc   y-rot acc   z-rot acc
    22626  1.70781E-06-5.13182E-05-8.62374E-05-6.22435E-08-1.29047E-05-2.11278E-05-7.59242E-06 1.90392E-04 3.42833E-04



 n o d a l   p r i n t   o u t   f o r   t i m e  s t e p    8601                              ( at time 4.2995697E+00 )

 nodal point  x-disp     y-disp      z-disp      x-vel       y-vel       z-vel      x-accl      y-accl      z-accl      x-coor      y-coor      z-coor
    22626 -1.90921E-02-3.21806E-02-1.34864E+01-5.49700E-03-3.74688E-03-3.15997E+00 1.36008E-02-2.12009E-02 1.75017E-03 4.79451E+01-2.20620E+01-6.14794E+00



 n o d a l   p r i n t   o u t   f o r   t i m e  s t e p    8601                              ( at time 4.2995697E+00 )

 nodal point  x-rot      y-rot       z-rot       x-rot vel   y-rot vel   z-rot vel   x-rot acc   y-rot acc   z-rot acc
    22626  1.71004E-06-5.16717E-05-8.69427E-05 2.36855E-07 3.66934E-06 6.37107E-06 2.99129E-06 1.65757E-04 2.75017E-04



 n o d a l   p r i n t   o u t   f o r   t i m e  s t e p    8801                              ( at time 4.3995597E+00 )

 nodal point  x-disp     y-disp      z-disp      x-vel       y-vel       z-vel      x-accl      y-accl      z-accl      x-coor      y-coor      z-coor
    22626 -1.95543E-02-3.25911E-02-1.38024E+01-3.74212E-03-4.49689E-03-3.16063E+00 1.75506E-02-7.50082E-03-6.57863E-03 4.79446E+01-2.20624E+01-6.46393E+00



 n o d a l   p r i n t   o u t   f o r   t i m e  s t e p    8801                              ( at time 4.3995597E+00 )

 nodal point  x-rot      y-rot       z-rot       x-rot vel   y-rot vel   z-rot vel   x-rot acc   y-rot acc   z-rot acc
    22626  1.81024E-06-5.03222E-05-8.44647E-05 1.16194E-06 2.32629E-05 4.20196E-05 9.25179E-06 1.95956E-04 3.56521E-04



 n o d a l   p r i n t   o u t   f o r   t i m e  s t e p    9001                              ( at time 4.4995497E+00 )

 nodal point  x-disp     y-disp      z-disp      x-vel       y-vel       z-vel      x-accl      y-accl      z-accl      x-coor      y-coor      z-coor
    22626 -1.98434E-02-3.31404E-02-1.41185E+01-1.93307E-03-6.85248E-03-3.16022E+00 1.80922E-02-2.35583E-02 4.11789E-03 4.79443E+01-2.20629E+01-6.77995E+00



 n o d a l   p r i n t   o u t   f o r   t i m e  s t e p    9001                              ( at time 4.4995497E+00 )

 nodal point  x-rot      y-rot       z-rot       x-rot vel   y-rot vel   z-rot vel   x-rot acc   y-rot acc   z-rot acc
    22626  1.96356E-06-4.67169E-05-7.81428E-05 3.75135E-06 4.50555E-05 7.83379E-05 2.58966E-05 2.17946E-04 3.63218E-04



 n o d a l   p r i n t   o u t   f o r   t i m e  s t e p    9201                              ( at time 4.5995397E+00 )

 nodal point  x-disp     y-disp      z-disp      x-vel       y-vel       z-vel      x-accl      y-accl      z-accl      x-coor      y-coor      z-coor
    22626 -1.99412E-02-3.39819E-02-1.44344E+01-1.07768E-05-9.77702E-03-3.15960E+00 1.92249E-02-2.92483E-02 6.15897E-03 4.79442E+01-2.20638E+01-7.09590E+00



 n o d a l   p r i n t   o u t   f o r   t i m e  s t e p    9201                              ( at time 4.5995397E+00 )

 nodal point  x-rot      y-rot       z-rot       x-rot vel   y-rot vel   z-rot vel   x-rot acc   y-rot acc   z-rot acc
    22626  2.30932E-06-4.14600E-05-6.89361E-05 4.37797E-06 6.03135E-05 1.03971E-04 6.26691E-06 1.52595E-04 2.56353E-04



 n o d a l   p r i n t   o u t   f o r   t i m e  s t e p    9401                              ( at time 4.6995297E+00 )

 nodal point  x-disp     y-disp      z-disp      x-vel       y-vel       z-vel      x-accl      y-accl      z-accl      x-coor      y-coor      z-coor
    22626 -1.98288E-02-3.50361E-02-1.47503E+01 2.14381E-03-1.13123E-02-3.15945E+00 2.15481E-02-1.53544E-02 1.50934E-03 4.79444E+01-2.20648E+01-7.41183E+00



 n o d a l   p r i n t   o u t   f o r   t i m e  s t e p    9401                              ( at time 4.6995297E+00 )

 nodal point  x-rot      y-rot       z-rot       x-rot vel   y-rot vel   z-rot vel   x-rot acc   y-rot acc   z-rot acc
    22626  2.71071E-06-3.42559E-05-5.63742E-05 3.32104E-06 8.58037E-05 1.47107E-04-1.05704E-05 2.54928E-04 4.31406E-04



 n o d a l   p r i n t   o u t   f o r   t i m e  s t e p    9601                              ( at time 4.7995197E+00 )

 nodal point  x-disp     y-disp      z-disp      x-vel       y-vel       z-vel      x-accl      y-accl      z-accl      x-coor      y-coor      z-coor
    22626 -1.95093E-02-3.62455E-02-1.50662E+01 4.28116E-03-1.28741E-02-3.15935E+00 2.13756E-02-1.56195E-02 1.04915E-03 4.79447E+01-2.20660E+01-7.72774E+00



 n o d a l   p r i n t   o u t   f o r   t i m e  s t e p    9601                              ( at time 4.7995197E+00 )

 nodal point  x-rot      y-rot       z-rot       x-rot vel   y-rot vel   z-rot vel   x-rot acc   y-rot acc   z-rot acc
    22626  2.92504E-06-2.43948E-05-3.94046E-05-5.14579E-06 1.14046E-04 1.95958E-04-8.46768E-05 2.82453E-04 4.88561E-04



 n o d a l   p r i n t   o u t   f o r   t i m e  s t e p    9801                              ( at time 4.8995097E+00 )

 nodal point  x-disp     y-disp      z-disp      x-vel       y-vel       z-vel      x-accl      y-accl      z-accl      x-coor      y-coor      z-coor
    22626 -1.89753E-02-3.76060E-02-1.53820E+01 6.33466E-03-1.42482E-02-3.15590E+00 2.05371E-02-1.37429E-02 3.44740E-02 4.79452E+01-2.20674E+01-8.04352E+00



 n o d a l   p r i n t   o u t   f o r   t i m e  s t e p    9801                              ( at time 4.8995097E+00 )

 nodal point  x-rot      y-rot       z-rot       x-rot vel   y-rot vel   z-rot vel   x-rot acc   y-rot acc   z-rot acc
    22626  2.10992E-06-1.07351E-05-1.79435E-05-3.70576E-06 1.64113E-04 2.26524E-04 1.44017E-05 5.00715E-04 3.05688E-04



 n o d a l   p r i n t   o u t   f o r   t i m e  s t e p   10001                              ( at time 4.9994997E+00 )

 nodal point  x-disp     y-disp      z-disp      x-vel       y-vel       z-vel      x-accl      y-accl      z-accl      x-coor      y-coor      z-coor
    22626 -1.82421E-02-3.90151E-02-1.56973E+01 8.61062E-03-1.48010E-02-3.14897E+00 2.27618E-02-5.52815E-03 6.92840E-02 4.79459E+01-2.20688E+01-8.35879E+00



 n o d a l   p r i n t   o u t   f o r   t i m e  s t e p   10001                              ( at time 4.9994997E+00 )

 nodal point  x-rot      y-rot       z-rot       x-rot vel   y-rot vel   z-rot vel   x-rot acc   y-rot acc   z-rot acc
    22626  4.45644E-06 9.08010E-06 4.97165E-06 3.84505E-05 2.54263E-04 2.46195E-04 4.21603E-04 9.01588E-04 1.96734E-04



 n o d a l   p r i n t   o u t   f o r   t i m e  s t e p   10202                              ( at time 5.0999896E+00 )

 nodal point  x-disp     y-disp      z-disp      x-vel       y-vel       z-vel      x-accl      y-accl      z-accl      x-coor      y-coor      z-coor
    22626 -1.72867E-02-4.05304E-02-1.60129E+01 9.94653E-03-1.36119E-02-3.13245E+00 1.32940E-02 1.18333E-02 1.64443E-01 4.79469E+01-2.20703E+01-8.67439E+00



 n o d a l   p r i n t   o u t   f o r   t i m e  s t e p   10202                              ( at time 5.0999896E+00 )

 nodal point  x-rot      y-rot       z-rot       x-rot vel   y-rot vel   z-rot vel   x-rot acc   y-rot acc   z-rot acc
    22626  9.66759E-06 4.37935E-05 3.04143E-05 1.12187E-04 4.21921E-04 2.32793E-04 7.33773E-04 1.66841E-03-1.33372E-04



 n o d a l   p r i n t   o u t   f o r   t i m e  s t e p   10402                              ( at time 5.1999796E+00 )

 nodal point  x-disp     y-disp      z-disp      x-vel       y-vel       z-vel      x-accl      y-accl      z-accl      x-coor      y-coor      z-coor
    22626 -1.61867E-02-4.16956E-02-1.63253E+01 1.16118E-02-9.86193E-03-3.11406E+00 1.66544E-02 3.75030E-02 1.83843E-01 4.79480E+01-2.20715E+01-8.98677E+00



 n o d a l   p r i n t   o u t   f o r   t i m e  s t e p   10402                              ( at time 5.1999796E+00 )

 nodal point  x-rot      y-rot       z-rot       x-rot vel   y-rot vel   z-rot vel   x-rot acc   y-rot acc   z-rot acc
    22626  2.69979E-05 9.65036E-05 5.40440E-05 2.18055E-04 6.43215E-04 2.30629E-04 1.05878E-03 2.21316E-03-2.16396E-05



 n o d a l   p r i n t   o u t   f o r   t i m e  s t e p   10602                              ( at time 5.2999696E+00 )

 nodal point  x-disp     y-disp      z-disp      x-vel       y-vel       z-vel      x-accl      y-accl      z-accl      x-coor      y-coor      z-coor
    22626 -1.49214E-02-4.25252E-02-1.66353E+01 1.45426E-02-6.08479E-03-3.08754E+00 2.93111E-02 3.77752E-02 2.65306E-01 4.79493E+01-2.20723E+01-9.29680E+00



 n o d a l   p r i n t   o u t   f o r   t i m e  s t e p   10602                              ( at time 5.2999696E+00 )

 nodal point  x-rot      y-rot       z-rot       x-rot vel   y-rot vel   z-rot vel   x-rot acc   y-rot acc   z-rot acc
    22626  5.28249E-05 1.72316E-04 7.65765E-05 3.21003E-04 8.58304E-04 1.96919E-04 1.02959E-03 2.15110E-03-3.37136E-04



 n o d a l   p r i n t   o u t   f o r   t i m e  s t e p   10802                              ( at time 5.3999596E+00 )

 nodal point  x-disp     y-disp      z-disp      x-vel       y-vel       z-vel      x-accl      y-accl      z-accl      x-coor      y-coor      z-coor
    22626 -1.34347E-02-4.28991E-02-1.69425E+01 1.49897E-02-9.23214E-04-3.05563E+00 4.47169E-03 5.16210E-02 3.19070E-01 4.79507E+01-2.20727E+01-9.60396E+00



 n o d a l   p r i n t   o u t   f o r   t i m e  s t e p   10802                              ( at time 5.3999596E+00 )

 nodal point  x-rot      y-rot       z-rot       x-rot vel   y-rot vel   z-rot vel   x-rot acc   y-rot acc   z-rot acc
    22626  9.35796E-05 2.73902E-04 9.51729E-05 4.93056E-04 1.13992E-03 1.59154E-04 1.72070E-03 2.81640E-03-3.77686E-04



 n o d a l   p r i n t   o u t   f o r   t i m e  s t e p   11002                              ( at time 5.4999496E+00 )

 nodal point  x-disp     y-disp      z-disp      x-vel       y-vel       z-vel      x-accl      y-accl      z-accl      x-coor      y-coor      z-coor
    22626 -1.17694E-02-4.27846E-02-1.72463E+01 1.84654E-02 4.59650E-03-3.01833E+00 3.47599E-02 5.52027E-02 3.73072E-01 4.79524E+01-2.20726E+01-9.90775E+00



 n o d a l   p r i n t   o u t   f o r   t i m e  s t e p   11002                              ( at time 5.4999496E+00 )

 nodal point  x-rot      y-rot       z-rot       x-rot vel   y-rot vel   z-rot vel   x-rot acc   y-rot acc   z-rot acc
    22626  1.50028E-04 4.01956E-04 1.09932E-04 6.47190E-04 1.44295E-03 9.80342E-05 1.54149E-03 3.03062E-03-6.11259E-04



 n o d a l   p r i n t   o u t   f o r   t i m e  s t e p   11202                              ( at time 5.5999396E+00 )

 nodal point  x-disp     y-disp      z-disp      x-vel       y-vel       z-vel      x-accl      y-accl      z-accl      x-coor      y-coor      z-coor
    22626 -9.82903E-03-4.20900E-02-1.75462E+01 2.07428E-02 9.80673E-03-2.98191E+00 2.27759E-02 5.21076E-02 3.64226E-01 4.79543E+01-2.20719E+01-1.02077E+01



 n o d a l   p r i n t   o u t   f o r   t i m e  s t e p   11202                              ( at time 5.5999396E+00 )

 nodal point  x-rot      y-rot       z-rot       x-rot vel   y-rot vel   z-rot vel   x-rot acc   y-rot acc   z-rot acc
    22626  2.24835E-04 5.63716E-04 1.17255E-04 8.38699E-04 1.76172E-03 5.22975E-05 1.91528E-03 3.18801E-03-4.57414E-04



 n o d a l   p r i n t   o u t   f o r   t i m e  s t e p   11402                              ( at time 5.6999296E+00 )

 nodal point  x-disp     y-disp      z-disp      x-vel       y-vel       z-vel      x-accl      y-accl      z-accl      x-coor      y-coor      z-coor
    22626 -7.63279E-03-4.07591E-02-1.78424E+01 2.38979E-02 1.74600E-02-2.94226E+00 3.15550E-02 7.65397E-02 3.96538E-01 4.79565E+01-2.20705E+01-1.05039E+01



 n o d a l   p r i n t   o u t   f o r   t i m e  s t e p   11402                              ( at time 5.6999296E+00 )

 nodal point  x-rot      y-rot       z-rot       x-rot vel   y-rot vel   z-rot vel   x-rot acc   y-rot acc   z-rot acc
    22626  3.17087E-04 7.56408E-04 1.19164E-04 1.01882E-03 2.09210E-03-2.30396E-05 1.80139E-03 3.30418E-03-7.53443E-04



 n o d a l   p r i n t   o u t   f o r   t i m e  s t e p   11602                              ( at time 5.7999195E+00 )

 nodal point  x-disp     y-disp      z-disp      x-vel       y-vel       z-vel      x-accl      y-accl      z-accl      x-coor      y-coor      z-coor
    22626 -5.12819E-03-3.86268E-02-1.81346E+01 2.66212E-02 2.63260E-02-2.90215E+00 2.72355E-02 8.86698E-02 4.01154E-01 4.79591E+01-2.20684E+01-1.07961E+01



 n o d a l   p r i n t   o u t   f o r   t i m e  s t e p   11602                              ( at time 5.7999195E+00 )

 nodal point  x-rot      y-rot       z-rot       x-rot vel   y-rot vel   z-rot vel   x-rot acc   y-rot acc   z-rot acc
    22626  4.29894E-04 9.83196E-04 1.12713E-04 1.23781E-03 2.43651E-03-1.25740E-04 2.19010E-03 3.44438E-03-1.02711E-03



 n o d a l   p r i n t   o u t   f o r   t i m e  s t e p   11802                              ( at time 5.8999095E+00 )

 nodal point  x-disp     y-disp      z-disp      x-vel       y-vel       z-vel      x-accl      y-accl      z-accl      x-coor      y-coor      z-coor
    22626 -2.22690E-03-3.57026E-02-1.84227E+01 3.08911E-02 3.20963E-02-2.85950E+00 4.27029E-02 5.77080E-02 4.26557E-01 4.79620E+01-2.20655E+01-1.10842E+01



 n o d a l   p r i n t   o u t   f o r   t i m e  s t e p   11802                              ( at time 5.8999095E+00 )

 nodal point  x-rot      y-rot       z-rot       x-rot vel   y-rot vel   z-rot vel   x-rot acc   y-rot acc   z-rot acc
    22626  5.64551E-04 1.24429E-03 9.68361E-05 1.44961E-03 2.77498E-03-2.01030E-04 2.11821E-03 3.38505E-03-7.52977E-04



 n o d a l   p r i n t   o u t   f o r   t i m e  s t e p   12002                              ( at time 5.9998995E+00 )

 nodal point  x-disp     y-disp      z-disp      x-vel       y-vel       z-vel      x-accl      y-accl      z-accl      x-coor      y-coor      z-coor
    22626  1.04915E-03-3.20212E-02-1.87064E+01 3.41679E-02 4.21223E-02-2.81624E+00 3.27719E-02 1.00270E-01 4.32669E-01 4.79652E+01-2.20618E+01-1.13679E+01



 n o d a l   p r i n t   o u t   f o r   t i m e  s t e p   12002                              ( at time 5.9998995E+00 )

 nodal point  x-rot      y-rot       z-rot       x-rot vel   y-rot vel   z-rot vel   x-rot acc   y-rot acc   z-rot acc
    22626  7.19267E-04 1.54076E-03 7.01300E-05 1.65619E-03 3.14878E-03-3.23636E-04 2.06608E-03 3.73839E-03-1.22618E-03



 n o d a l   p r i n t   o u t   f o r   t i m e  s t e p   12202                              ( at time 6.0998895E+00 )

 nodal point  x-disp     y-disp      z-disp      x-vel       y-vel       z-vel      x-accl      y-accl      z-accl      x-coor      y-coor      z-coor
    22626  4.65258E-03-2.73918E-02-1.89860E+01 3.81691E-02 5.05390E-02-2.77428E+00 4.00154E-02 8.41748E-02 4.19581E-01 4.79688E+01-2.20572E+01-1.16475E+01



 n o d a l   p r i n t   o u t   f o r   t i m e  s t e p   12202                              ( at time 6.0998895E+00 )

 nodal point  x-rot      y-rot       z-rot       x-rot vel   y-rot vel   z-rot vel   x-rot acc   y-rot acc   z-rot acc
    22626  8.97858E-04 1.87177E-03 3.26674E-05 1.90292E-03 3.48717E-03-4.28469E-04 2.46751E-03 3.38427E-03-1.04843E-03



 n o d a l   p r i n t   o u t   f o r   t i m e  s t e p   12402                              ( at time 6.1998795E+00 )

 nodal point  x-disp     y-disp      z-disp      x-vel       y-vel       z-vel      x-accl      y-accl      z-accl      x-coor      y-coor      z-coor
    22626  8.73310E-03-2.18632E-02-1.92610E+01 4.48252E-02 5.83448E-02-2.72903E+00 6.65673E-02 7.80659E-02 4.52524E-01 4.79729E+01-2.20517E+01-1.19225E+01



 n o d a l   p r i n t   o u t   f o r   t i m e  s t e p   12402                              ( at time 6.1998795E+00 )

 nodal point  x-rot      y-rot       z-rot       x-rot vel   y-rot vel   z-rot vel   x-rot acc   y-rot acc   z-rot acc
    22626  1.09586E-03 2.23793E-03-1.65206E-05 2.06480E-03 3.82206E-03-5.33809E-04 1.61895E-03 3.34919E-03-1.05351E-03



 n o d a l   p r i n t   o u t   f o r   t i m e  s t e p   12602                              ( at time 6.2998695E+00 )

 nodal point  x-disp     y-disp      z-disp      x-vel       y-vel       z-vel      x-accl      y-accl      z-accl      x-coor      y-coor      z-coor
    22626  1.34644E-02-1.55959E-02-1.95316E+01 5.09929E-02 6.75422E-02-2.68349E+00 6.16837E-02 9.19835E-02 4.55478E-01 4.79776E+01-2.20454E+01-1.21931E+01



 n o d a l   p r i n t   o u t   f o r   t i m e  s t e p   12602                              ( at time 6.2998695E+00 )

 nodal point  x-rot      y-rot       z-rot       x-rot vel   y-rot vel   z-rot vel   x-rot acc   y-rot acc   z-rot acc
    22626  1.31619E-03 2.63579E-03-7.59484E-05 2.31994E-03 4.13714E-03-6.68285E-04 2.55162E-03 3.15119E-03-1.34489E-03



 n o d a l   p r i n t   o u t   f o r   t i m e  s t e p   12802                              ( at time 6.3998595E+00 )

 nodal point  x-disp     y-disp      z-disp      x-vel       y-vel       z-vel      x-accl      y-accl      z-accl      x-coor      y-coor      z-coor
    22626  1.88879E-02-8.44548E-03-1.97975E+01 5.80411E-02 7.57850E-02-2.63520E+00 7.04894E-02 8.24366E-02 4.82932E-01 4.79831E+01-2.20382E+01-1.24590E+01



 n o d a l   p r i n t   o u t   f o r   t i m e  s t e p   12802                              ( at time 6.3998595E+00 )

 nodal point  x-rot      y-rot       z-rot       x-rot vel   y-rot vel   z-rot vel   x-rot acc   y-rot acc   z-rot acc
    22626  1.55675E-03 3.06570E-03-1.47754E-04 2.47882E-03 4.46056E-03-7.79696E-04 1.58899E-03 3.23447E-03-1.11423E-03



 n o d a l   p r i n t   o u t   f o r   t i m e  s t e p   13002                              ( at time 6.4998495E+00 )

 nodal point  x-disp     y-disp      z-disp      x-vel       y-vel       z-vel      x-accl      y-accl      z-accl      x-coor      y-coor      z-coor
    22626  2.51113E-02-4.48012E-04-2.00587E+01 6.65849E-02 8.44680E-02-2.58657E+00 8.54460E-02 8.68387E-02 4.86373E-01 4.79893E+01-2.20302E+01-1.27202E+01



 n o d a l   p r i n t   o u t   f o r   t i m e  s t e p   13002                              ( at time 6.4998495E+00 )

 nodal point  x-rot      y-rot       z-rot       x-rot vel   y-rot vel   z-rot vel   x-rot acc   y-rot acc   z-rot acc
    22626  1.81682E-03 3.52666E-03-2.29963E-04 2.73292E-03 4.75620E-03-8.68422E-04 2.54128E-03 2.95674E-03-8.87345E-04



 n o d a l   p r i n t   o u t   f o r   t i m e  s t e p   13202                              ( at time 6.5998395E+00 )

 nodal point  x-disp     y-disp      z-disp      x-vel       y-vel       z-vel      x-accl      y-accl      z-accl      x-coor      y-coor      z-coor
    22626  3.22322E-02 8.54683E-03-2.03146E+01 7.61911E-02 9.41835E-02-2.53409E+00 9.60719E-02 9.71642E-02 5.24846E-01 4.79964E+01-2.20212E+01-1.29761E+01



 n o d a l   p r i n t   o u t   f o r   t i m e  s t e p   13202                              ( at time 6.5998395E+00 )

 nodal point  x-rot      y-rot       z-rot       x-rot vel   y-rot vel   z-rot vel   x-rot acc   y-rot acc   z-rot acc
    22626  2.09803E-03 4.01645E-03-3.22688E-04 2.89566E-03 5.05418E-03-9.90326E-04 1.62749E-03 2.98012E-03-1.21916E-03



 n o d a l   p r i n t   o u t   f o r   t i m e  s t e p   13402                              ( at time 6.6998295E+00 )

 nodal point  x-disp     y-disp      z-disp      x-vel       y-vel       z-vel      x-accl      y-accl      z-accl      x-coor      y-coor      z-coor
    22626  4.02489E-02 1.83473E-02-2.05654E+01 8.46517E-02 1.02004E-01-2.48053E+00 8.46141E-02 7.82148E-02 5.35640E-01 4.80044E+01-2.20114E+01-1.32269E+01



 n o d a l   p r i n t   o u t   f o r   t i m e  s t e p   13402                              ( at time 6.6998295E+00 )

 nodal point  x-rot      y-rot       z-rot       x-rot vel   y-rot vel   z-rot vel   x-rot acc   y-rot acc   z-rot acc
    22626  2.39850E-03 4.53678E-03-4.28107E-04 3.11977E-03 5.34542E-03-1.10909E-03 2.24137E-03 2.91267E-03-1.18773E-03



 n o d a l   p r i n t   o u t   f o r   t i m e  s t e p   13602                              ( at time 6.7998195E+00 )

 nodal point  x-disp     y-disp      z-disp      x-vel       y-vel       z-vel      x-accl      y-accl      z-accl      x-coor      y-coor      z-coor
    22626  4.92068E-02 2.90385E-02-2.08105E+01 9.45050E-02 1.11181E-01-2.42361E+00 9.85430E-02 9.17729E-02 5.69270E-01 4.80134E+01-2.20008E+01-1.34720E+01



 n o d a l   p r i n t   o u t   f o r   t i m e  s t e p   13602                              ( at time 6.7998195E+00 )

 nodal point  x-rot      y-rot       z-rot       x-rot vel   y-rot vel   z-rot vel   x-rot acc   y-rot acc   z-rot acc
    22626  2.72115E-03 5.08445E-03-5.44474E-04 3.33967E-03 5.58741E-03-1.23207E-03 2.19925E-03 2.42009E-03-1.22993E-03



 n o d a l   p r i n t   o u t   f o r   t i m e  s t e p   13802                              ( at time 6.8998095E+00 )

 nodal point  x-disp     y-disp      z-disp      x-vel       y-vel       z-vel      x-accl      y-accl      z-accl      x-coor      y-coor      z-coor
    22626  5.91314E-02 4.04621E-02-2.10499E+01 1.03486E-01 1.18463E-01-2.36497E+00 8.98172E-02 7.28365E-02 5.86424E-01 4.80233E+01-2.19893E+01-1.37114E+01



 n o d a l   p r i n t   o u t   f o r   t i m e  s t e p   13802                              ( at time 6.8998095E+00 )

 nodal point  x-rot      y-rot       z-rot       x-rot vel   y-rot vel   z-rot vel   x-rot acc   y-rot acc   z-rot acc
    22626  3.06624E-03 5.65835E-03-6.71942E-04 3.55970E-03 5.87153E-03-1.34291E-03 2.20051E-03 2.84152E-03-1.10849E-03



 n o d a l   p r i n t   o u t   f o r   t i m e  s t e p   14002                              ( at time 6.9997995E+00 )

 nodal point  x-disp     y-disp      z-disp      x-vel       y-vel       z-vel      x-accl      y-accl      z-accl      x-coor      y-coor      z-coor
    22626  6.98776E-02 5.27198E-02-2.12834E+01 1.11749E-01 1.26517E-01-2.30565E+00 8.26438E-02 8.05444E-02 5.93317E-01 4.80341E+01-2.19771E+01-1.39449E+01



 n o d a l   p r i n t   o u t   f o r   t i m e  s t e p   14002                              ( at time 6.9997995E+00 )

 nodal point  x-rot      y-rot       z-rot       x-rot vel   y-rot vel   z-rot vel   x-rot acc   y-rot acc   z-rot acc
    22626  3.43360E-03 6.25772E-03-8.10375E-04 3.80147E-03 6.10389E-03-1.43744E-03 2.41791E-03 2.32384E-03-9.45487E-04



 n o d a l   p r i n t   o u t   f o r   t i m e  s t e p   14202                              ( at time 7.0997895E+00 )

 nodal point  x-disp     y-disp      z-disp      x-vel       y-vel       z-vel      x-accl      y-accl      z-accl      x-coor      y-coor      z-coor
    22626  8.14054E-02 6.56706E-02-2.15108E+01 1.19137E-01 1.32446E-01-2.24210E+00 7.38856E-02 5.92919E-02 6.35542E-01 4.80456E+01-2.19641E+01-1.41723E+01



 n o d a l   p r i n t   o u t   f o r   t i m e  s t e p   14202                              ( at time 7.0997895E+00 )

 nodal point  x-rot      y-rot       z-rot       x-rot vel   y-rot vel   z-rot vel   x-rot acc   y-rot acc   z-rot acc
    22626  3.82686E-03 6.87929E-03-9.58914E-04 4.07810E-03 6.32513E-03-1.53568E-03 2.76659E-03 2.21259E-03-9.82457E-04



 n o d a l   p r i n t   o u t   f o r   t i m e  s t e p   14402                              ( at time 7.1997794E+00 )

 nodal point  x-disp     y-disp      z-disp      x-vel       y-vel       z-vel      x-accl      y-accl      z-accl      x-coor      y-coor      z-coor
    22626  9.37517E-02 7.92094E-02-2.17318E+01 1.27116E-01 1.38362E-01-2.17775E+00 7.97927E-02 5.91700E-02 6.43604E-01 4.80579E+01-2.19506E+01-1.43933E+01



 n o d a l   p r i n t   o u t   f o r   t i m e  s t e p   14402                              ( at time 7.1997794E+00 )

 nodal point  x-rot      y-rot       z-rot       x-rot vel   y-rot vel   z-rot vel   x-rot acc   y-rot acc   z-rot acc
    22626  4.24730E-03 7.52335E-03-1.11694E-03 4.33295E-03 6.53559E-03-1.63102E-03 2.54871E-03 2.10486E-03-9.53462E-04



 n o d a l   p r i n t   o u t   f o r   t i m e  s t e p   14602                              ( at time 7.2997694E+00 )

 nodal point  x-disp     y-disp      z-disp      x-vel       y-vel       z-vel      x-accl      y-accl      z-accl      x-coor      y-coor      z-coor
    22626  1.06793E-01 9.32975E-02-2.19462E+01 1.32702E-01 1.42450E-01-2.11171E+00 5.58661E-02 4.08868E-02 6.60439E-01 4.80710E+01-2.19365E+01-1.46077E+01



 n o d a l   p r i n t   o u t   f o r   t i m e  s t e p   14602                              ( at time 7.2997694E+00 )

 nodal point  x-rot      y-rot       z-rot       x-rot vel   y-rot vel   z-rot vel   x-rot acc   y-rot acc   z-rot acc
    22626  4.69491E-03 8.18743E-03-1.28517E-03 4.62197E-03 6.72368E-03-1.73267E-03 2.89050E-03 1.88107E-03-1.01665E-03



 n o d a l   p r i n t   o u t   f o r   t i m e  s t e p   14802                              ( at time 7.3997594E+00 )

 nodal point  x-disp     y-disp      z-disp      x-vel       y-vel       z-vel      x-accl      y-accl      z-accl      x-coor      y-coor      z-coor
    22626  1.20496E-01 1.07697E-01-2.21539E+01 1.40481E-01 1.47948E-01-2.04157E+00 7.78003E-02 5.49835E-02 7.01486E-01 4.80847E+01-2.19221E+01-1.48154E+01



 n o d a l   p r i n t   o u t   f o r   t i m e  s t e p   14802                              ( at time 7.3997594E+00 )

 nodal point  x-rot      y-rot       z-rot       x-rot vel   y-rot vel   z-rot vel   x-rot acc   y-rot acc   z-rot acc
    22626  5.17165E-03 8.87023E-03-1.46247E-03 4.92284E-03 6.91753E-03-1.84541E-03 3.00904E-03 1.93872E-03-1.12748E-03



 n o d a l   p r i n t   o u t   f o r   t i m e  s t e p   15002                              ( at time 7.4997494E+00 )

 nodal point  x-disp     y-disp      z-disp      x-vel       y-vel       z-vel      x-accl      y-accl      z-accl      x-coor      y-coor      z-coor
    22626  1.34809E-01 1.22401E-01-2.23546E+01 1.45931E-01 1.46753E-01-1.97198E+00 5.45062E-02-1.19544E-02 6.95950E-01 4.80990E+01-2.19074E+01-1.50161E+01



 n o d a l   p r i n t   o u t   f o r   t i m e  s t e p   15002                              ( at time 7.4997494E+00 )

 nodal point  x-rot      y-rot       z-rot       x-rot vel   y-rot vel   z-rot vel   x-rot acc   y-rot acc   z-rot acc
    22626  5.67821E-03 9.57271E-03-1.64916E-03 5.22748E-03 7.11126E-03-1.90518E-03 3.04669E-03 1.93744E-03-5.97765E-04



 n o d a l   p r i n t   o u t   f o r   t i m e  s t e p   15202                              ( at time 7.5997394E+00 )

 nodal point  x-disp     y-disp      z-disp      x-vel       y-vel       z-vel      x-accl      y-accl      z-accl      x-coor      y-coor      z-coor
    22626  1.49713E-01 1.37214E-01-2.25480E+01 1.51585E-01 1.47657E-01-1.89810E+00 5.65459E-02 9.03936E-03 7.38833E-01 4.81139E+01-2.18926E+01-1.52095E+01



 n o d a l   p r i n t   o u t   f o r   t i m e  s t e p   15202                              ( at time 7.5997394E+00 )

 nodal point  x-rot      y-rot       z-rot       x-rot vel   y-rot vel   z-rot vel   x-rot acc   y-rot acc   z-rot acc
    22626  6.21631E-03 1.02921E-02-1.84500E-03 5.53329E-03 7.27191E-03-2.00340E-03 3.05844E-03 1.60669E-03-9.82280E-04



 n o d a l   p r i n t   o u t   f o r   t i m e  s t e p   15402                              ( at time 7.6997294E+00 )

 nodal point  x-disp     y-disp      z-disp      x-vel       y-vel       z-vel      x-accl      y-accl      z-accl      x-coor      y-coor      z-coor
    22626  1.65177E-01 1.51872E-01-2.27341E+01 1.57739E-01 1.46621E-01-1.82185E+00 6.15418E-02-1.03614E-02 7.62600E-01 4.81294E+01-2.18779E+01-1.53956E+01



 n o d a l   p r i n t   o u t   f o r   t i m e  s t e p   15402                              ( at time 7.6997294E+00 )

 nodal point  x-rot      y-rot       z-rot       x-rot vel   y-rot vel   z-rot vel   x-rot acc   y-rot acc   z-rot acc
    22626  6.78652E-03 1.10257E-02-2.04863E-03 5.85174E-03 7.41738E-03-2.08596E-03 3.18482E-03 1.45489E-03-8.25692E-04



 n o d a l   p r i n t   o u t   f o r   t i m e  s t e p   15602                              ( at time 7.7997194E+00 )

 nodal point  x-disp     y-disp      z-disp      x-vel       y-vel       z-vel      x-accl      y-accl      z-accl      x-coor      y-coor      z-coor
    22626  1.81212E-01 1.66569E-01-2.29124E+01 1.62726E-01 1.45546E-01-1.74725E+00 4.98745E-02-1.07520E-02 7.46075E-01 4.81454E+01-2.18632E+01-1.55739E+01



 n o d a l   p r i n t   o u t   f o r   t i m e  s t e p   15602                              ( at time 7.7997194E+00 )

 nodal point  x-rot      y-rot       z-rot       x-rot vel   y-rot vel   z-rot vel   x-rot acc   y-rot acc   z-rot acc
    22626  7.38875E-03 1.17748E-02-2.26084E-03 6.16802E-03 7.55213E-03-2.15454E-03 3.16307E-03 1.34758E-03-6.85926E-04



 n o d a l   p r i n t   o u t   f o r   t i m e  s t e p   15802                              ( at time 7.8997094E+00 )

 nodal point  x-disp     y-disp      z-disp      x-vel       y-vel       z-vel      x-accl      y-accl      z-accl      x-coor      y-coor      z-coor
    22626  1.97759E-01 1.81073E-01-2.30832E+01 1.68638E-01 1.43599E-01-1.66863E+00 5.91321E-02-1.94724E-02 7.86278E-01 4.81619E+01-2.18487E+01-1.57447E+01



 n o d a l   p r i n t   o u t   f o r   t i m e  s t e p   15802                              ( at time 7.8997094E+00 )

 nodal point  x-rot      y-rot       z-rot       x-rot vel   y-rot vel   z-rot vel   x-rot acc   y-rot acc   z-rot acc
    22626  8.02021E-03 1.25347E-02-2.47990E-03 6.46248E-03 7.62948E-03-2.22817E-03 2.94494E-03 7.73607E-04-7.36297E-04



 n o d a l   p r i n t   o u t   f o r   t i m e  s t e p   16002                              ( at time 7.9996994E+00 )

 nodal point  x-disp     y-disp      z-disp      x-vel       y-vel       z-vel      x-accl      y-accl      z-accl      x-coor      y-coor      z-coor
    22626  2.14874E-01 1.95179E-01-2.32460E+01 1.74172E-01 1.40406E-01-1.58878E+00 5.53395E-02-3.19258E-02 7.98565E-01 4.81791E+01-2.18346E+01-1.59075E+01



 n o d a l   p r i n t   o u t   f o r   t i m e  s t e p   16002                              ( at time 7.9996994E+00 )

 nodal point  x-rot      y-rot       z-rot       x-rot vel   y-rot vel   z-rot vel   x-rot acc   y-rot acc   z-rot acc
    22626  8.68192E-03 1.33044E-02-2.70491E-03 6.78869E-03 7.77702E-03-2.32069E-03 3.26240E-03 1.47551E-03-9.25379E-04



 n o d a l   p r i n t   o u t   f o r   t i m e  s t e p   16202                              ( at time 8.0996894E+00 )

 nodal point  x-disp     y-disp      z-disp      x-vel       y-vel       z-vel      x-accl      y-accl      z-accl      x-coor      y-coor      z-coor
    22626  2.32560E-01 2.08868E-01-2.34011E+01 1.80197E-01 1.34840E-01-1.51165E+00 6.02634E-02-5.56650E-02 7.71434E-01 4.81967E+01-2.18209E+01-1.60626E+01



 n o d a l   p r i n t   o u t   f o r   t i m e  s t e p   16202                              ( at time 8.0996894E+00 )

 nodal point  x-rot      y-rot       z-rot       x-rot vel   y-rot vel   z-rot vel   x-rot acc   y-rot acc   z-rot acc
    22626  9.37687E-03 1.40852E-02-2.93889E-03 7.11594E-03 7.83562E-03-2.38107E-03 3.27277E-03 5.86127E-04-6.03851E-04



 n o d a l   p r i n t   o u t   f o r   t i m e  s t e p   16402                              ( at time 8.1996794E+00 )

 nodal point  x-disp     y-disp      z-disp      x-vel       y-vel       z-vel      x-accl      y-accl      z-accl      x-coor      y-coor      z-coor
    22626  2.50798E-01 2.22170E-01-2.35482E+01 1.85767E-01 1.29998E-01-1.43551E+00 5.56998E-02-4.84320E-02 7.61436E-01 4.82150E+01-2.18076E+01-1.62097E+01



 n o d a l   p r i n t   o u t   f o r   t i m e  s t e p   16402                              ( at time 8.1996794E+00 )

 nodal point  x-rot      y-rot       z-rot       x-rot vel   y-rot vel   z-rot vel   x-rot acc   y-rot acc   z-rot acc
    22626  1.01050E-02 1.48740E-02-3.17947E-03 7.44774E-03 7.91640E-03-2.43987E-03 3.31834E-03 8.07827E-04-5.88003E-04



 n o d a l   p r i n t   o u t   f o r   t i m e  s t e p   16602                              ( at time 8.2996694E+00 )

 nodal point  x-disp     y-disp      z-disp      x-vel       y-vel       z-vel      x-accl      y-accl      z-accl      x-coor      y-coor      z-coor
    22626  2.69704E-01 2.34862E-01-2.36879E+01 1.91931E-01 1.25223E-01-1.35689E+00 6.16510E-02-4.77517E-02 7.86306E-01 4.82339E+01-2.17949E+01-1.63494E+01



 n o d a l   p r i n t   o u t   f o r   t i m e  s t e p   16602                              ( at time 8.2996694E+00 )

 nodal point  x-rot      y-rot       z-rot       x-rot vel   y-rot vel   z-rot vel   x-rot acc   y-rot acc   z-rot acc
    22626  1.08673E-02 1.56699E-02-3.42620E-03 7.81401E-03 8.01313E-03-2.50358E-03 3.66309E-03 9.67435E-04-6.37194E-04



 n o d a l   p r i n t   o u t   f o r   t i m e  s t e p   16802                              ( at time 8.3996594E+00 )

 nodal point  x-disp     y-disp      z-disp      x-vel       y-vel       z-vel      x-accl      y-accl      z-accl      x-coor      y-coor      z-coor
    22626  2.89195E-01 2.47106E-01-2.38197E+01 1.98032E-01 1.19401E-01-1.28043E+00 6.10157E-02-5.82231E-02 7.64704E-01 4.82534E+01-2.17827E+01-1.64812E+01



 n o d a l   p r i n t   o u t   f o r   t i m e  s t e p   16802                              ( at time 8.3996594E+00 )

 nodal point  x-rot      y-rot       z-rot       x-rot vel   y-rot vel   z-rot vel   x-rot acc   y-rot acc   z-rot acc
    22626  1.16674E-02 1.64757E-02-3.67996E-03 8.19528E-03 8.07875E-03-2.56417E-03 3.81308E-03 6.56220E-04-6.05982E-04



 n o d a l   p r i n t   o u t   f o r   t i m e  s t e p   17002                              ( at time 8.4996494E+00 )

 nodal point  x-disp     y-disp      z-disp      x-vel       y-vel       z-vel      x-accl      y-accl      z-accl      x-coor      y-coor      z-coor
    22626  3.09395E-01 2.58757E-01-2.39438E+01 2.05810E-01 1.13453E-01-1.20312E+00 7.77846E-02-5.94870E-02 7.73163E-01 4.82736E+01-2.17710E+01-1.66053E+01



 n o d a l   p r i n t   o u t   f o r   t i m e  s t e p   17002                              ( at time 8.4996494E+00 )

 nodal point  x-rot      y-rot       z-rot       x-rot vel   y-rot vel   z-rot vel   x-rot acc   y-rot acc   z-rot acc
    22626  1.25030E-02 1.72867E-02-3.94050E-03 8.52830E-03 8.12845E-03-2.63312E-03 3.33060E-03 4.97078E-04-6.89523E-04



 n o d a l   p r i n t   o u t   f o r   t i m e  s t e p   17202                              ( at time 8.5996394E+00 )

 nodal point  x-disp     y-disp      z-disp      x-vel       y-vel       z-vel      x-accl      y-accl      z-accl      x-coor      y-coor      z-coor
    22626  3.30386E-01 2.69861E-01-2.40603E+01 2.13537E-01 1.09389E-01-1.12503E+00 7.72802E-02-4.06417E-02 7.80919E-01 4.82946E+01-2.17599E+01-1.67218E+01



 n o d a l   p r i n t   o u t   f o r   t i m e  s t e p   17202                              ( at time 8.5996394E+00 )

 nodal point  x-rot      y-rot       z-rot       x-rot vel   y-rot vel   z-rot vel   x-rot acc   y-rot acc   z-rot acc
    22626  1.33741E-02 1.81026E-02-4.20493E-03 8.89962E-03 8.19330E-03-2.69072E-03 3.71354E-03 6.48536E-04-5.76107E-04



 n o d a l   p r i n t   o u t   f o r   t i m e  s t e p   17402                              ( at time 8.6996293E+00 )

 nodal point  x-disp     y-disp      z-disp      x-vel       y-vel       z-vel      x-accl      y-accl      z-accl      x-coor      y-coor      z-coor
    22626  3.52060E-01 2.80411E-01-2.41689E+01 2.20030E-01 1.01495E-01-1.04836E+00 6.49327E-02-7.89455E-02 7.66814E-01 4.83162E+01-2.17494E+01-1.68304E+01



 n o d a l   p r i n t   o u t   f o r   t i m e  s t e p   17402                              ( at time 8.6996293E+00 )

 nodal point  x-rot      y-rot       z-rot       x-rot vel   y-rot vel   z-rot vel   x-rot acc   y-rot acc   z-rot acc
    22626  1.42855E-02 1.89246E-02-4.47563E-03 9.32012E-03 8.24225E-03-2.73760E-03 4.20542E-03 4.89576E-04-4.68852E-04



 n o d a l   p r i n t   o u t   f o r   t i m e  s t e p   17602                              ( at time 8.7996193E+00 )

 nodal point  x-disp     y-disp      z-disp      x-vel       y-vel       z-vel      x-accl      y-accl      z-accl      x-coor      y-coor      z-coor
    22626  3.74430E-01 2.90286E-01-2.42700E+01 2.28571E-01 9.52502E-02-9.73604E-01 8.54185E-02-6.24595E-02 7.47622E-01 4.83386E+01-2.17395E+01-1.69315E+01



 n o d a l   p r i n t   o u t   f o r   t i m e  s t e p   17602                              ( at time 8.7996193E+00 )

 nodal point  x-rot      y-rot       z-rot       x-rot vel   y-rot vel   z-rot vel   x-rot acc   y-rot acc   z-rot acc
    22626  1.52354E-02 1.97521E-02-4.75334E-03 9.68946E-03 8.28901E-03-2.80968E-03 3.69370E-03 4.67683E-04-7.20872E-04



 n o d a l   p r i n t   o u t   f o r   t i m e  s t e p   17802                              ( at time 8.8996093E+00 )

 nodal point  x-disp     y-disp      z-disp      x-vel       y-vel       z-vel      x-accl      y-accl      z-accl      x-coor      y-coor      z-coor
    22626  3.97777E-01 2.99424E-01-2.43636E+01 2.37797E-01 8.71585E-02-9.00210E-01 9.22766E-02-8.09245E-02 7.34017E-01 4.83620E+01-2.17304E+01-1.70251E+01



 n o d a l   p r i n t   o u t   f o r   t i m e  s t e p   17802                              ( at time 8.8996093E+00 )

 nodal point  x-rot      y-rot       z-rot       x-rot vel   y-rot vel   z-rot vel   x-rot acc   y-rot acc   z-rot acc
    22626  1.62268E-02 2.05839E-02-5.03600E-03 1.01294E-02 8.36392E-03-2.84562E-03 4.40030E-03 7.49138E-04-3.59443E-04



 n o d a l   p r i n t   o u t   f o r   t i m e  s t e p   18002                              ( at time 8.9995993E+00 )

 nodal point  x-disp     y-disp      z-disp      x-vel       y-vel       z-vel      x-accl      y-accl      z-accl      x-coor      y-coor      z-coor
    22626  4.21921E-01 3.07853E-01-2.44498E+01 2.44456E-01 8.13147E-02-8.25792E-01 6.65888E-02-5.84439E-02 7.44246E-01 4.83861E+01-2.17219E+01-1.71113E+01



 n o d a l   p r i n t   o u t   f o r   t i m e  s t e p   18002                              ( at time 8.9995993E+00 )

 nodal point  x-rot      y-rot       z-rot       x-rot vel   y-rot vel   z-rot vel   x-rot acc   y-rot acc   z-rot acc
    22626  1.72597E-02 2.14253E-02-5.32242E-03 1.05187E-02 8.43649E-03-2.89400E-03 3.89328E-03 7.25788E-04-4.83836E-04



 n o d a l   p r i n t   o u t   f o r   t i m e  s t e p   18202                              ( at time 9.0995893E+00 )

 nodal point  x-disp     y-disp      z-disp      x-vel       y-vel       z-vel      x-accl      y-accl      z-accl      x-coor      y-coor      z-coor
    22626  4.46846E-01 3.15759E-01-2.45287E+01 2.54307E-01 7.61107E-02-7.52818E-01 9.85245E-02-5.20456E-02 7.29818E-01 4.84110E+01-2.17140E+01-1.71902E+01



 n o d a l   p r i n t   o u t   f o r   t i m e  s t e p   18202                              ( at time 9.0995893E+00 )

 nodal point  x-rot      y-rot       z-rot       x-rot vel   y-rot vel   z-rot vel   x-rot acc   y-rot acc   z-rot acc
    22626  1.83350E-02 2.22729E-02-5.61534E-03 1.09624E-02 8.51535E-03-2.97095E-03 4.43724E-03 7.88621E-04-7.69504E-04



 n o d a l   p r i n t   o u t   f o r   t i m e  s t e p   18402                              ( at time 9.1995793E+00 )

 nodal point  x-disp     y-disp      z-disp      x-vel       y-vel       z-vel      x-accl      y-accl      z-accl      x-coor      y-coor      z-coor
    22626  4.72846E-01 3.23108E-01-2.46003E+01 2.65838E-01 7.17916E-02-6.78299E-01 1.15317E-01-4.31953E-02 7.45266E-01 4.84370E+01-2.17067E+01-1.72618E+01



 n o d a l   p r i n t   o u t   f o r   t i m e  s t e p   18402                              ( at time 9.1995793E+00 )

 nodal point  x-rot      y-rot       z-rot       x-rot vel   y-rot vel   z-rot vel   x-rot acc   y-rot acc   z-rot acc
    22626  1.94500E-02 2.31255E-02-5.91289E-03 1.13436E-02 8.57625E-03-2.97249E-03 3.81274E-03 6.09053E-04-1.54452E-05



 n o d a l   p r i n t   o u t   f o r   t i m e  s t e p   18602                              ( at time 9.2995693E+00 )

 nodal point  x-disp     y-disp      z-disp      x-vel       y-vel       z-vel      x-accl      y-accl      z-accl      x-coor      y-coor      z-coor
    22626  4.99800E-01 3.30033E-01-2.46643E+01 2.72692E-01 6.66028E-02-6.02687E-01 6.85469E-02-5.18935E-02 7.56201E-01 4.84640E+01-2.16998E+01-1.73258E+01



 n o d a l   p r i n t   o u t   f o r   t i m e  s t e p   18602                              ( at time 9.2995693E+00 )

 nodal point  x-rot      y-rot       z-rot       x-rot vel   y-rot vel   z-rot vel   x-rot acc   y-rot acc   z-rot acc
    22626  2.06075E-02 2.39875E-02-6.21485E-03 1.18143E-02 8.65574E-03-3.03397E-03 4.70752E-03 7.95067E-04-6.14884E-04



 n o d a l   p r i n t   o u t   f o r   t i m e  s t e p   18802                              ( at time 9.3995593E+00 )

 nodal point  x-disp     y-disp      z-disp      x-vel       y-vel       z-vel      x-accl      y-accl      z-accl      x-coor      y-coor      z-coor
    22626  5.27519E-01 3.36590E-01-2.47208E+01 2.82225E-01 6.57538E-02-5.27450E-01 9.53452E-02-8.49102E-03 7.52446E-01 4.84917E+01-2.16932E+01-1.73823E+01



 n o d a l   p r i n t   o u t   f o r   t i m e  s t e p   18802                              ( at time 9.3995593E+00 )

 nodal point  x-rot      y-rot       z-rot       x-rot vel   y-rot vel   z-rot vel   x-rot acc   y-rot acc   z-rot acc
    22626  2.18080E-02 2.48577E-02-6.52440E-03 1.22224E-02 8.75359E-03-3.12243E-03 4.08112E-03 9.78509E-04-8.84622E-04



 n o d a l   p r i n t   o u t   f o r   t i m e  s t e p   19002                              ( at time 9.4995493E+00 )

 nodal point  x-disp     y-disp      z-disp      x-vel       y-vel       z-vel      x-accl      y-accl      z-accl      x-coor      y-coor      z-coor
    22626  5.56472E-01 3.42780E-01-2.47698E+01 2.95013E-01 5.89080E-02-4.52823E-01 1.27888E-01-6.84645E-02 7.46336E-01 4.85207E+01-2.16870E+01-1.74313E+01



 n o d a l   p r i n t   o u t   f o r   t i m e  s t e p   19002                              ( at time 9.4995493E+00 )

 nodal point  x-rot      y-rot       z-rot       x-rot vel   y-rot vel   z-rot vel   x-rot acc   y-rot acc   z-rot acc
    22626  2.30483E-02 2.57372E-02-6.83684E-03 1.25991E-02 8.83274E-03-3.13846E-03 3.76686E-03 7.91630E-04-1.60322E-04



 n o d a l   p r i n t   o u t   f o r   t i m e  s t e p   19202                              ( at time 9.5995393E+00 )

 nodal point  x-disp     y-disp      z-disp      x-vel       y-vel       z-vel      x-accl      y-accl      z-accl      x-coor      y-coor      z-coor
    22626  5.86361E-01 3.48763E-01-2.48113E+01 3.01947E-01 6.06430E-02-3.78641E-01 6.93495E-02 1.73510E-02 7.41894E-01 4.85505E+01-2.16810E+01-1.74728E+01



 n o d a l   p r i n t   o u t   f o r   t i m e  s t e p   19202                              ( at time 9.5995393E+00 )

 nodal point  x-rot      y-rot       z-rot       x-rot vel   y-rot vel   z-rot vel   x-rot acc   y-rot acc   z-rot acc
    22626  2.43309E-02 2.66264E-02-7.15579E-03 1.30710E-02 8.96132E-03-3.17800E-03 4.71970E-03 1.28589E-03-3.95464E-04



 n o d a l   p r i n t   o u t   f o r   t i m e  s t e p   19402                              ( at time 9.6995293E+00 )

 nodal point  x-disp     y-disp      z-disp      x-vel       y-vel       z-vel      x-accl      y-accl      z-accl      x-coor      y-coor      z-coor
    22626  6.16860E-01 3.54737E-01-2.48455E+01 3.09283E-01 5.95165E-02-3.05540E-01 7.33634E-02-1.12653E-02 7.31082E-01 4.85810E+01-2.16751E+01-1.75070E+01



 n o d a l   p r i n t   o u t   f o r   t i m e  s t e p   19402                              ( at time 9.6995293E+00 )

 nodal point  x-rot      y-rot       z-rot       x-rot vel   y-rot vel   z-rot vel   x-rot acc   y-rot acc   z-rot acc
    22626  2.56558E-02 2.75275E-02-7.47830E-03 1.34285E-02 9.06771E-03-3.26105E-03 3.57522E-03 1.06402E-03-8.30633E-04



 n o d a l   p r i n t   o u t   f o r   t i m e  s t e p   19602                              ( at time 9.7995193E+00 )

 nodal point  x-disp     y-disp      z-disp      x-vel       y-vel       z-vel      x-accl      y-accl      z-accl      x-coor      y-coor      z-coor
    22626  6.48311E-01 3.60480E-01-2.48727E+01 3.18209E-01 5.69177E-02-2.39019E-01 8.92744E-02-2.59908E-02 6.65282E-01 4.86125E+01-2.16693E+01-1.75342E+01



 n o d a l   p r i n t   o u t   f o r   t i m e  s t e p   19602                              ( at time 9.7995193E+00 )

 nodal point  x-rot      y-rot       z-rot       x-rot vel   y-rot vel   z-rot vel   x-rot acc   y-rot acc   z-rot acc
    22626  2.70192E-02 2.84385E-02-7.80815E-03 1.38430E-02 9.14127E-03-3.30321E-03 4.14566E-03 7.35726E-04-4.21617E-04



 n o d a l   p r i n t   o u t   f o r   t i m e  s t e p   19802                              ( at time 9.8995093E+00 )

 nodal point  x-disp     y-disp      z-disp      x-vel       y-vel       z-vel      x-accl      y-accl      z-accl      x-coor      y-coor      z-coor
    22626  6.80523E-01 3.66048E-01-2.48931E+01 3.22722E-01 5.82985E-02-1.66937E-01 4.51300E-02 1.38089E-02 7.20888E-01 4.86447E+01-2.16637E+01-1.75546E+01



 n o d a l   p r i n t   o u t   f o r   t i m e  s t e p   19802                              ( at time 9.8995093E+00 )

 nodal point  x-rot      y-rot       z-rot       x-rot vel   y-rot vel   z-rot vel   x-rot acc   y-rot acc   z-rot acc
    22626  2.84189E-02 2.93595E-02-8.13853E-03 1.41842E-02 9.28162E-03-3.35774E-03 3.41268E-03 1.40360E-03-5.45312E-04



 n o d a l   p r i n t   o u t   f o r   t i m e  s t e p   20003                              ( at time 9.9999992E+00 )

 nodal point  x-disp     y-disp      z-disp      x-vel       y-vel       z-vel      x-accl      y-accl      z-accl      x-coor      y-coor      z-coor
[...]
    22626  2.41341E-01 1.36469E-01-6.28977E-02 1.54000E-02 6.75474E-03-4.25124E-03 7.85475E-04 6.97904E-05 3.41836E-04



 n o d a l   p r i n t   o u t   f o r   t i m e  s t e p   45205                              ( at time 2.2599738E+01 )

 nodal point  x-disp     y-disp      z-disp      x-vel       y-vel       z-vel      x-accl      y-accl      z-accl      x-coor      y-coor      z-coor
    22626  4.55411E+00 5.55178E-02-1.91716E+01 3.49662E-01-1.12331E-01 4.80337E-01 3.91051E-02-3.01177E-02 2.33326E-02 5.25183E+01-2.19743E+01-1.18331E+01



 n o d a l   p r i n t   o u t   f o r   t i m e  s t e p   45205                              ( at time 2.2599738E+01 )

 nodal point  x-rot      y-rot       z-rot       x-rot vel   y-rot vel   z-rot vel   x-rot acc   y-rot acc   z-rot acc
    22626  2.42883E-01 1.37146E-01-6.33213E-02 1.54394E-02 6.79944E-03-4.22480E-03 3.94200E-04 4.47080E-04 2.64394E-04



 n o d a l   p r i n t   o u t   f o r   t i m e  s t e p   45405                              ( at time 2.2699728E+01 )

 nodal point  x-disp     y-disp      z-disp      x-vel       y-vel       z-vel      x-accl      y-accl      z-accl      x-coor      y-coor      z-coor
    22626  4.58920E+00 4.40457E-02-1.91235E+01 3.52411E-01-1.16602E-01 4.81990E-01 2.74936E-02-4.27196E-02 1.65299E-02 5.25534E+01-2.19857E+01-1.17850E+01



 n o d a l   p r i n t   o u t   f o r   t i m e  s t e p   45405                              ( at time 2.2699728E+01 )

 nodal point  x-rot      y-rot       z-rot       x-rot vel   y-rot vel   z-rot vel   x-rot acc   y-rot acc   z-rot acc
    22626  2.44429E-01 1.37828E-01-6.37423E-02 1.54914E-02 6.82059E-03-4.19600E-03 5.19931E-04 2.11531E-04 2.88006E-04



 n o d a l   p r i n t   o u t   f o r   t i m e  s t e p   45605                              ( at time 2.2799718E+01 )

 nodal point  x-disp     y-disp      z-disp      x-vel       y-vel       z-vel      x-accl      y-accl      z-accl      x-coor      y-coor      z-coor
    22626  4.62459E+00 3.21906E-02-1.90752E+01 3.55351E-01-1.19967E-01 4.83977E-01 2.94080E-02-3.36513E-02 1.98713E-02 5.25888E+01-2.19976E+01-1.17367E+01



 n o d a l   p r i n t   o u t   f o r   t i m e  s t e p   45605                              ( at time 2.2799718E+01 )

 nodal point  x-rot      y-rot       z-rot       x-rot vel   y-rot vel   z-rot vel   x-rot acc   y-rot acc   z-rot acc
    22626  2.45980E-01 1.38511E-01-6.41593E-02 1.55452E-02 6.84701E-03-4.15493E-03 5.38186E-04 2.64240E-04 4.10788E-04



 n o d a l   p r i n t   o u t   f o r   t i m e  s t e p   45805                              ( at time 2.2899708E+01 )

 nodal point  x-disp     y-disp      z-disp      x-vel       y-vel       z-vel      x-accl      y-accl      z-accl      x-coor      y-coor      z-coor
    22626  4.66024E+00 2.00303E-02-1.90269E+01 3.57533E-01-1.23380E-01 4.82972E-01 2.18210E-02-3.41294E-02-1.00511E-02 5.26244E+01-2.20098E+01-1.16884E+01



 n o d a l   p r i n t   o u t   f o r   t i m e  s t e p   45805                              ( at time 2.2899708E+01 )

 nodal point  x-rot      y-rot       z-rot       x-rot vel   y-rot vel   z-rot vel   x-rot acc   y-rot acc   z-rot acc
    22626  2.47538E-01 1.39197E-01-6.45744E-02 1.56127E-02 6.87205E-03-4.14512E-03 6.74566E-04 2.50442E-04 9.80651E-05



 n o d a l   p r i n t   o u t   f o r   t i m e  s t e p   46005                              ( at time 2.2999698E+01 )

 nodal point  x-disp     y-disp      z-disp      x-vel       y-vel       z-vel      x-accl      y-accl      z-accl      x-coor      y-coor      z-coor
    22626  4.69608E+00 7.55998E-03-1.89786E+01 3.59379E-01-1.25668E-01 4.82977E-01 1.84598E-02-2.28912E-02 4.58998E-05 5.26603E+01-2.20222E+01-1.16401E+01



 n o d a l   p r i n t   o u t   f o r   t i m e  s t e p   46005                              ( at time 2.2999698E+01 )

 nodal point  x-rot      y-rot       z-rot       x-rot vel   y-rot vel   z-rot vel   x-rot acc   y-rot acc   z-rot acc
    22626  2.49103E-01 1.39885E-01-6.49883E-02 1.56818E-02 6.87551E-03-4.12053E-03 6.91589E-04 3.45226E-05 2.45943E-04



 n o d a l   p r i n t   o u t   f o r   t i m e  s t e p   46205                              ( at time 2.3099688E+01 )

 nodal point  x-disp     y-disp      z-disp      x-vel       y-vel       z-vel      x-accl      y-accl      z-accl      x-coor      y-coor      z-coor
    22626  4.73216E+00-5.11466E-03-1.89303E+01 3.61987E-01-1.28169E-01 4.82073E-01 2.60829E-02-2.50118E-02-9.03826E-03 5.26963E+01-2.20349E+01-1.15918E+01



 n o d a l   p r i n t   o u t   f o r   t i m e  s t e p   46205                              ( at time 2.3099688E+01 )

 nodal point  x-rot      y-rot       z-rot       x-rot vel   y-rot vel   z-rot vel   x-rot acc   y-rot acc   z-rot acc
    22626  2.50674E-01 1.40572E-01-6.53988E-02 1.57538E-02 6.88971E-03-4.09505E-03 7.20253E-04 1.42019E-04 2.54824E-04



 n o d a l   p r i n t   o u t   f o r   t i m e  s t e p   46405                              ( at time 2.3199678E+01 )

 nodal point  x-disp     y-disp      z-disp      x-vel       y-vel       z-vel      x-accl      y-accl      z-accl      x-coor      y-coor      z-coor
    22626  4.76840E+00-1.80162E-02-1.88822E+01 3.62917E-01-1.29126E-01 4.81131E-01 9.29769E-03-9.57025E-03-9.42257E-03 5.27326E+01-2.20478E+01-1.15437E+01



 n o d a l   p r i n t   o u t   f o r   t i m e  s t e p   46405                              ( at time 2.3199678E+01 )

 nodal point  x-rot      y-rot       z-rot       x-rot vel   y-rot vel   z-rot vel   x-rot acc   y-rot acc   z-rot acc
    22626  2.52253E-01 1.41262E-01-6.58076E-02 1.58245E-02 6.89072E-03-4.08349E-03 7.07274E-04 1.01710E-05 1.15616E-04



 n o d a l   p r i n t   o u t   f o r   t i m e  s t e p   46605                              ( at time 2.3299668E+01 )

 nodal point  x-disp     y-disp      z-disp      x-vel       y-vel       z-vel      x-accl      y-accl      z-accl      x-coor      y-coor      z-coor
    22626  4.80481E+00-3.09352E-02-1.88341E+01 3.65247E-01-1.29830E-01 4.80234E-01 2.33056E-02-7.03502E-03-8.96613E-03 5.27690E+01-2.20607E+01-1.14956E+01



 n o d a l   p r i n t   o u t   f o r   t i m e  s t e p   46605                              ( at time 2.3299668E+01 )

 nodal point  x-rot      y-rot       z-rot       x-rot vel   y-rot vel   z-rot vel   x-rot acc   y-rot acc   z-rot acc
    22626  2.53838E-01 1.41950E-01-6.62149E-02 1.58801E-02 6.88138E-03-4.06607E-03 5.55148E-04-9.34313E-05 1.74265E-04



 n o d a l   p r i n t   o u t   f o r   t i m e  s t e p   46805                              ( at time 2.3399658E+01 )

 nodal point  x-disp     y-disp      z-disp      x-vel       y-vel       z-vel      x-accl      y-accl      z-accl      x-coor      y-coor      z-coor
    22626  4.84135E+00-4.39434E-02-1.87862E+01 3.65752E-01-1.30157E-01 4.78918E-01 5.04510E-03-3.27602E-03-1.31577E-02 5.28055E+01-2.20737E+01-1.14477E+01



 n o d a l   p r i n t   o u t   f o r   t i m e  s t e p   46805                              ( at time 2.3399658E+01 )

 nodal point  x-rot      y-rot       z-rot       x-rot vel   y-rot vel   z-rot vel   x-rot acc   y-rot acc   z-rot acc
    22626  2.55430E-01 1.42638E-01-6.66213E-02 1.59606E-02 6.88423E-03-4.04662E-03 8.05649E-04 2.84638E-05 1.94487E-04



 n o d a l   p r i n t   o u t   f o r   t i m e  s t e p   47005                              ( at time 2.3499648E+01 )

 nodal point  x-disp     y-disp      z-disp      x-vel       y-vel       z-vel      x-accl      y-accl      z-accl      x-coor      y-coor      z-coor
    22626  4.87795E+00-5.69177E-02-1.87384E+01 3.66797E-01-1.29666E-01 4.75994E-01 1.04604E-02 4.91113E-03-2.92495E-02 5.28421E+01-2.20867E+01-1.13999E+01



 n o d a l   p r i n t   o u t   f o r   t i m e  s t e p   47005                              ( at time 2.3499648E+01 )

 nodal point  x-rot      y-rot       z-rot       x-rot vel   y-rot vel   z-rot vel   x-rot acc   y-rot acc   z-rot acc
    22626  2.57029E-01 1.43326E-01-6.70256E-02 1.60232E-02 6.87503E-03-4.04074E-03 6.25981E-04-9.20184E-05 5.88417E-05



 n o d a l   p r i n t   o u t   f o r   t i m e  s t e p   47205                              ( at time 2.3599638E+01 )

 nodal point  x-disp     y-disp      z-disp      x-vel       y-vel       z-vel      x-accl      y-accl      z-accl      x-coor      y-coor      z-coor
    22626  4.91467E+00-6.98937E-02-1.86909E+01 3.67241E-01-1.29110E-01 4.73784E-01 4.43776E-03 5.56322E-03-2.21044E-02 5.28788E+01-2.20997E+01-1.13524E+01



 n o d a l   p r i n t   o u t   f o r   t i m e  s t e p   47205                              ( at time 2.3599638E+01 )

 nodal point  x-rot      y-rot       z-rot       x-rot vel   y-rot vel   z-rot vel   x-rot acc   y-rot acc   z-rot acc
    22626  2.58635E-01 1.44013E-01-6.74297E-02 1.60931E-02 6.86513E-03-4.03647E-03 6.99240E-04-9.89873E-05 4.26872E-05



 n o d a l   p r i n t   o u t   f o r   t i m e  s t e p   47405                              ( at time 2.3699628E+01 )

 nodal point  x-disp     y-disp      z-disp      x-vel       y-vel       z-vel      x-accl      y-accl      z-accl      x-coor      y-coor      z-coor
    22626  4.95144E+00-8.26639E-02-1.86436E+01 3.68055E-01-1.27152E-01 4.73135E-01 8.13439E-03 1.95798E-02-6.48498E-03 5.29156E+01-2.21125E+01-1.13051E+01



 n o d a l   p r i n t   o u t   f o r   t i m e  s t e p   47405                              ( at time 2.3699628E+01 )

 nodal point  x-rot      y-rot       z-rot       x-rot vel   y-rot vel   z-rot vel   x-rot acc   y-rot acc   z-rot acc
    22626  2.60246E-01 1.44698E-01-6.78333E-02 1.61429E-02 6.84744E-03-4.02685E-03 4.98229E-04-1.76902E-04 9.62144E-05



 n o d a l   p r i n t   o u t   f o r   t i m e  s t e p   47605                              ( at time 2.3799618E+01 )

 nodal point  x-disp     y-disp      z-disp      x-vel       y-vel       z-vel      x-accl      y-accl      z-accl      x-coor      y-coor      z-coor
    22626  4.98826E+00-9.53422E-02-1.85965E+01 3.68502E-01-1.26117E-01 4.69743E-01 4.47084E-03 1.03510E-02-3.39218E-02 5.29524E+01-2.21251E+01-1.12580E+01



 n o d a l   p r i n t   o u t   f o r   t i m e  s t e p   47605                              ( at time 2.3799618E+01 )

 nodal point  x-rot      y-rot       z-rot       x-rot vel   y-rot vel   z-rot vel   x-rot acc   y-rot acc   z-rot acc
    22626  2.61864E-01 1.45382E-01-6.82359E-02 1.62142E-02 6.84861E-03-4.01478E-03 7.12857E-04 1.17127E-05 1.20727E-04



 n o d a l   p r i n t   o u t   f o r   t i m e  s t e p   47805                              ( at time 2.3899608E+01 )

 nodal point  x-disp     y-disp      z-disp      x-vel       y-vel       z-vel      x-accl      y-accl      z-accl      x-coor      y-coor      z-coor
    22626  5.02509E+00-1.07788E-01-1.85496E+01 3.68387E-01-1.23188E-01 4.67789E-01-1.14392E-03 2.92911E-02-1.95432E-02 5.29893E+01-2.21376E+01-1.12111E+01



 n o d a l   p r i n t   o u t   f o r   t i m e  s t e p   47805                              ( at time 2.3899608E+01 )

 nodal point  x-rot      y-rot       z-rot       x-rot vel   y-rot vel   z-rot vel   x-rot acc   y-rot acc   z-rot acc
    22626  2.63488E-01 1.46066E-01-6.86393E-02 1.62667E-02 6.82470E-03-4.03589E-03 5.25184E-04-2.39111E-04-2.11118E-04



 n o d a l   p r i n t   o u t   f o r   t i m e  s t e p   48005                              ( at time 2.3999598E+01 )

 nodal point  x-disp     y-disp      z-disp      x-vel       y-vel       z-vel      x-accl      y-accl      z-accl      x-coor      y-coor      z-coor
    22626  5.06194E+00-1.20000E-01-1.85030E+01 3.68785E-01-1.20854E-01 4.64347E-01 3.98292E-03 2.33477E-02-3.44231E-02 5.30261E+01-2.21498E+01-1.11645E+01



 n o d a l   p r i n t   o u t   f o r   t i m e  s t e p   48005                              ( at time 2.3999598E+01 )

 nodal point  x-rot      y-rot       z-rot       x-rot vel   y-rot vel   z-rot vel   x-rot acc   y-rot acc   z-rot acc
    22626  2.65118E-01 1.46747E-01-6.90422E-02 1.63473E-02 6.78930E-03-4.02070E-03 8.06074E-04-3.54072E-04 1.51874E-04



 n o d a l   p r i n t   o u t   f o r   t i m e  s t e p   48205                              ( at time 2.4099588E+01 )

 nodal point  x-disp     y-disp      z-disp      x-vel       y-vel       z-vel      x-accl      y-accl      z-accl      x-coor      y-coor      z-coor
    22626  5.09879E+00-1.31915E-01-1.84567E+01 3.68346E-01-1.17582E-01 4.61552E-01-4.39148E-03 3.27215E-02-2.79589E-02 5.30630E+01-2.21617E+01-1.11182E+01



 n o d a l   p r i n t   o u t   f o r   t i m e  s t e p   48205                              ( at time 2.4099588E+01 )

 nodal point  x-rot      y-rot       z-rot       x-rot vel   y-rot vel   z-rot vel   x-rot acc   y-rot acc   z-rot acc
    22626  2.66756E-01 1.47426E-01-6.94445E-02 1.64147E-02 6.79513E-03-4.03821E-03 6.73706E-04 5.83667E-05-1.75067E-04



 n o d a l   p r i n t   o u t   f o r   t i m e  s t e p   48405                              ( at time 2.4199578E+01 )

 nodal point  x-disp     y-disp      z-disp      x-vel       y-vel       z-vel      x-accl      y-accl      z-accl      x-coor      y-coor      z-coor
    22626  5.13559E+00-1.43521E-01-1.84107E+01 3.68241E-01-1.14330E-01 4.58384E-01-1.04975E-03 3.25252E-02-3.16834E-02 5.30998E+01-2.21733E+01-1.10722E+01



 n o d a l   p r i n t   o u t   f o r   t i m e  s t e p   48405                              ( at time 2.4199578E+01 )

 nodal point  x-rot      y-rot       z-rot       x-rot vel   y-rot vel   z-rot vel   x-rot acc   y-rot acc   z-rot acc
    22626  2.68401E-01 1.48104E-01-6.98491E-02 1.64788E-02 6.75887E-03-4.05083E-03 6.41119E-04-3.62716E-04-1.26222E-04



 n o d a l   p r i n t   o u t   f o r   t i m e  s t e p   48605                              ( at time 2.4299568E+01 )

 nodal point  x-disp     y-disp      z-disp      x-vel       y-vel       z-vel      x-accl      y-accl      z-accl      x-coor      y-coor      z-coor
    22626  5.17236E+00-1.54819E-01-1.83650E+01 3.67646E-01-1.11499E-01 4.56160E-01-5.95952E-03 2.83100E-02-2.22370E-02 5.31365E+01-2.21846E+01-1.10265E+01



 n o d a l   p r i n t   o u t   f o r   t i m e  s t e p   48605                              ( at time 2.4299568E+01 )

 nodal point  x-rot      y-rot       z-rot       x-rot vel   y-rot vel   z-rot vel   x-rot acc   y-rot acc   z-rot acc
    22626  2.70052E-01 1.48779E-01-7.02529E-02 1.65382E-02 6.75231E-03-4.03401E-03 5.94536E-04-6.55432E-05 1.68203E-04



 n o d a l   p r i n t   o u t   f o r   t i m e  s t e p   48805                              ( at time 2.4399558E+01 )

 nodal point  x-disp     y-disp      z-disp      x-vel       y-vel       z-vel      x-accl      y-accl      z-accl      x-coor      y-coor      z-coor
    22626  5.20909E+00-1.65774E-01-1.83195E+01 3.67145E-01-1.08042E-01 4.53072E-01-5.00993E-03 3.45701E-02-3.08852E-02 5.31733E+01-2.21956E+01-1.09810E+01



 n o d a l   p r i n t   o u t   f o r   t i m e  s t e p   48805                              ( at time 2.4399558E+01 )

 nodal point  x-rot      y-rot       z-rot       x-rot vel   y-rot vel   z-rot vel   x-rot acc   y-rot acc   z-rot acc
    22626  2.71708E-01 1.49455E-01-7.06577E-02 1.66038E-02 6.75321E-03-4.06931E-03 6.55152E-04 8.98809E-06-3.53092E-04



 n o d a l   p r i n t   o u t   f o r   t i m e  s t e p   49006                              ( at time 2.4500048E+01 )

 nodal point  x-disp     y-disp      z-disp      x-vel       y-vel       z-vel      x-accl      y-accl      z-accl      x-coor      y-coor      z-coor
    22626  5.24595E+00-1.76468E-01-1.82742E+01 3.66499E-01-1.04625E-01 4.49754E-01-6.42290E-03 3.40051E-02-3.30170E-02 5.32101E+01-2.22063E+01-1.09357E+01



 n o d a l   p r i n t   o u t   f o r   t i m e  s t e p   49006                              ( at time 2.4500048E+01 )

 nodal point  x-rot      y-rot       z-rot       x-rot vel   y-rot vel   z-rot vel   x-rot acc   y-rot acc   z-rot acc
    22626  2.73380E-01 1.50132E-01-7.10669E-02 1.66597E-02 6.72339E-03-4.07972E-03 5.57096E-04-2.96810E-04-1.03514E-04



 n o d a l   p r i n t   o u t   f o r   t i m e  s t e p   49206                              ( at time 2.4600038E+01 )

 nodal point  x-disp     y-disp      z-disp      x-vel       y-vel       z-vel      x-accl      y-accl      z-accl      x-coor      y-coor      z-coor
    22626  5.28253E+00-1.86813E-01-1.82293E+01 3.65429E-01-1.02173E-01 4.47644E-01-1.07066E-02 2.45249E-02-2.11079E-02 5.32467E+01-2.22166E+01-1.08908E+01



 n o d a l   p r i n t   o u t   f o r   t i m e  s t e p   49206                              ( at time 2.4600038E+01 )

 nodal point  x-rot      y-rot       z-rot       x-rot vel   y-rot vel   z-rot vel   x-rot acc   y-rot acc   z-rot acc
    22626  2.75048E-01 1.50805E-01-7.14746E-02 1.67052E-02 6.72526E-03-4.08168E-03 4.54713E-04 1.87586E-05-1.96667E-05



 n o d a l   p r i n t   o u t   f o r   t i m e  s t e p   49406                              ( at time 2.4700028E+01 )

 nodal point  x-disp     y-disp      z-disp      x-vel       y-vel       z-vel      x-accl      y-accl      z-accl      x-coor      y-coor      z-coor
    22626  5.31904E+00-1.96835E-01-1.81846E+01 3.65047E-01-9.85050E-02 4.45133E-01-3.82048E-03 3.66842E-02-2.51047E-02 5.32832E+01-2.22266E+01-1.08461E+01



 n o d a l   p r i n t   o u t   f o r   t i m e  s t e p   49406                              ( at time 2.4700028E+01 )

 nodal point  x-rot      y-rot       z-rot       x-rot vel   y-rot vel   z-rot vel   x-rot acc   y-rot acc   z-rot acc
    22626  2.76721E-01 1.51477E-01-7.18836E-02 1.67662E-02 6.71517E-03-4.10028E-03 6.10046E-04-1.00906E-04-1.86024E-04



 n o d a l   p r i n t   o u t   f o r   t i m e  s t e p   49606                              ( at time 2.4800018E+01 )

 nodal point  x-disp     y-disp      z-disp      x-vel       y-vel       z-vel      x-accl      y-accl      z-accl      x-coor      y-coor      z-coor
    22626  5.35548E+00-2.06585E-01-1.81402E+01 3.63955E-01-9.64062E-02 4.43795E-01-1.09194E-02 2.09897E-02-1.33807E-02 5.33197E+01-2.22364E+01-1.08017E+01



 n o d a l   p r i n t   o u t   f o r   t i m e  s t e p   49606                              ( at time 2.4800018E+01 )

 nodal point  x-rot      y-rot       z-rot       x-rot vel   y-rot vel   z-rot vel   x-rot acc   y-rot acc   z-rot acc
    22626  2.78400E-01 1.52148E-01-7.22943E-02 1.68024E-02 6.71572E-03-4.11525E-03 3.61964E-04 5.43476E-06-1.49705E-04



 n o d a l   p r i n t   o u t   f o r   t i m e  s t e p   49806                              ( at time 2.4900008E+01 )

 nodal point  x-disp     y-disp      z-disp      x-vel       y-vel       z-vel      x-accl      y-accl      z-accl      x-coor      y-coor      z-coor
    22626  5.39181E+00-2.16089E-01-1.80960E+01 3.62454E-01-9.38912E-02 4.40422E-01-1.50041E-02 2.51535E-02-3.37417E-02 5.33560E+01-2.22459E+01-1.07575E+01



 n o d a l   p r i n t   o u t   f o r   t i m e  s t e p   49806                              ( at time 2.4900008E+01 )

 nodal point  x-rot      y-rot       z-rot       x-rot vel   y-rot vel   z-rot vel   x-rot acc   y-rot acc   z-rot acc
    22626  2.80083E-01 1.52819E-01-7.27065E-02 1.68618E-02 6.69232E-03-4.12600E-03 5.93821E-04-2.33988E-04-1.07538E-04



 n o d a l   p r i n t   o u t   f o r   t i m e  s t e p   50006                              ( at time 2.4999998E+01 )

 nodal point  x-disp     y-disp      z-disp      x-vel       y-vel       z-vel      x-accl      y-accl      z-accl      x-coor      y-coor      z-coor
    22626  5.42800E+00-2.25354E-01-1.80520E+01 3.61651E-01-9.14405E-02 4.38926E-01-8.03723E-03 2.45088E-02-1.49615E-02 5.33922E+01-2.22551E+01-1.07135E+01



 n o d a l   p r i n t   o u t   f o r   t i m e  s t e p   50006                              ( at time 2.4999998E+01 )

 nodal point  x-rot      y-rot       z-rot       x-rot vel   y-rot vel   z-rot vel   x-rot acc   y-rot acc   z-rot acc
    22626  2.81771E-01 1.53488E-01-7.31193E-02 1.69182E-02 6.69308E-03-4.14079E-03 5.64787E-04 7.63754E-06-1.47838E-04
