 LSTC 50th% Full_FE H-III Dummy (Beta Version, February 17, 2019)        
                    ls-dyna smp s R16 R16.0_619_d222963 date 03/18/2025

{BEGIN LEGEND}
 Entity #        Title
    22626                                                                                     
{END LEGEND}




 n o d a l   p r i n t   o u t   f o r   t i m e  s t e p       1                              ( at time 0.0000000E+00 )

 nodal point  x-disp     y-disp      z-disp      x-vel       y-vel       z-vel      x-accl      y-accl      z-accl      x-coor      y-coor      z-coor
    22626  0.00000E+00 0.00000E+00 0.00000E+00 0.00000E+00 0.00000E+00 0.00000E+00 0.00000E+00 0.00000E+00 0.00000E+00 4.65938E+00-2.81908E+01-4.49817E+01



 n o d a l   p r i n t   o u t   f o r   t i m e  s t e p       1                              ( at time 0.0000000E+00 )

 nodal point  x-rot      y-rot       z-rot       x-rot vel   y-rot vel   z-rot vel   x-rot acc   y-rot acc   z-rot acc
    22626  0.00000E+00 0.00000E+00 0.00000E+00 0.00000E+00 0.00000E+00 0.00000E+00 0.00000E+00 0.00000E+00 0.00000E+00



 n o d a l   p r i n t   o u t   f o r   t i m e  s t e p     201                              ( at time 9.9989993E-02 )

 nodal point  x-disp     y-disp      z-disp      x-vel       y-vel       z-vel      x-accl      y-accl      z-accl      x-coor      y-coor      z-coor
    22626  2.73575E-07 1.73669E-06-5.34278E-05 4.19752E-05 2.55596E-04-1.46819E-03 4.19794E-04 2.55621E-03-1.46834E-02 4.65938E+00-2.81908E+01-4.49818E+01



 n o d a l   p r i n t   o u t   f o r   t i m e  s t e p     201                              ( at time 9.9989993E-02 )

 nodal point  x-rot      y-rot       z-rot       x-rot vel   y-rot vel   z-rot vel   x-rot acc   y-rot acc   z-rot acc
    22626 -5.98980E-08-8.38467E-09-5.45921E-09-5.86955E-06-9.69950E-07-9.27110E-07-5.87014E-05-9.70047E-06-9.27203E-06



 n o d a l   p r i n t   o u t   f o r   t i m e  s t e p     401                              ( at time 1.9997999E-01 )

 nodal point  x-disp     y-disp      z-disp      x-vel       y-vel       z-vel      x-accl      y-accl      z-accl      x-coor      y-coor      z-coor
    22626  1.73067E-05 3.61743E-04-6.67600E-04 3.06127E-05 7.81130E-03-1.21539E-02-1.13636E-04 7.55646E-02-1.06867E-01 4.65939E+00-2.81905E+01-4.49824E+01



 n o d a l   p r i n t   o u t   f o r   t i m e  s t e p     401                              ( at time 1.9997999E-01 )

 nodal point  x-rot      y-rot       z-rot       x-rot vel   y-rot vel   z-rot vel   x-rot acc   y-rot acc   z-rot acc
    22626 -2.82029E-06-3.37201E-07-3.34633E-07-3.93952E-05-1.77269E-06-2.30180E-06-3.35290E-04-8.02818E-06-1.37483E-05



 n o d a l   p r i n t   o u t   f o r   t i m e  s t e p     601                              ( at time 2.9996998E-01 )

 nodal point  x-disp     y-disp      z-disp      x-vel       y-vel       z-vel      x-accl      y-accl      z-accl      x-coor      y-coor      z-coor
    22626  2.73737E-05 1.24007E-03-2.33843E-03 4.22085E-04 8.45215E-03-1.92571E-02 3.91512E-03 6.40916E-03-7.10395E-02 4.65940E+00-2.81896E+01-4.49841E+01



 n o d a l   p r i n t   o u t   f o r   t i m e  s t e p     601                              ( at time 2.9996998E-01 )

 nodal point  x-rot      y-rot       z-rot       x-rot vel   y-rot vel   z-rot vel   x-rot acc   y-rot acc   z-rot acc
    22626 -5.38404E-06-3.90607E-07-6.42402E-07-1.54001E-05-5.46520E-06-6.62051E-06 2.39975E-04-3.69288E-05-4.31913E-05



 n o d a l   p r i n t   o u t   f o r   t i m e  s t e p     801                              ( at time 3.9995997E-01 )

 nodal point  x-disp     y-disp      z-disp      x-vel       y-vel       z-vel      x-accl      y-accl      z-accl      x-coor      y-coor      z-coor
    22626  2.60311E-05 2.16242E-03-4.28287E-03-3.12591E-04 1.07403E-02-2.10852E-02-7.34749E-03 2.28836E-02-1.82832E-02 4.65940E+00-2.81887E+01-4.49860E+01



 n o d a l   p r i n t   o u t   f o r   t i m e  s t e p     801                              ( at time 3.9995997E-01 )

 nodal point  x-rot      y-rot       z-rot       x-rot vel   y-rot vel   z-rot vel   x-rot acc   y-rot acc   z-rot acc
    22626 -7.61659E-06-1.25014E-06-9.81110E-07-4.48614E-05-6.24269E-06-1.48086E-06-2.94643E-04-7.77567E-06 5.14016E-05



 n o d a l   p r i n t   o u t   f o r   t i m e  s t e p    1001                              ( at time 4.9994997E-01 )

 nodal point  x-disp     y-disp      z-disp      x-vel       y-vel       z-vel      x-accl      y-accl      z-accl      x-coor      y-coor      z-coor
    22626  3.69988E-06 3.43651E-03-6.74479E-03-2.40490E-04 1.41471E-02-2.87079E-02 7.21080E-04 3.40720E-02-7.62345E-02 4.65938E+00-2.81874E+01-4.49885E+01



 n o d a l   p r i n t   o u t   f o r   t i m e  s t e p    1001                              ( at time 4.9994997E-01 )

 nodal point  x-rot      y-rot       z-rot       x-rot vel   y-rot vel   z-rot vel   x-rot acc   y-rot acc   z-rot acc
    22626 -1.35611E-05-1.16573E-06-9.49829E-07-8.42147E-05 3.16406E-06 4.09125E-06-3.93572E-04 9.40769E-05 5.57268E-05



 n o d a l   p r i n t   o u t   f o r   t i m e  s t e p    1201                              ( at time 5.9993996E-01 )

 nodal point  x-disp     y-disp      z-disp      x-vel       y-vel       z-vel      x-accl      y-accl      z-accl      x-coor      y-coor      z-coor
    22626 -8.72296E-07 5.01223E-03-9.71615E-03 4.49974E-05 1.67007E-02-3.09925E-02 2.85516E-03 2.55380E-02-2.28478E-02 4.65937E+00-2.81858E+01-4.49914E+01



 n o d a l   p r i n t   o u t   f o r   t i m e  s t e p    1201                              ( at time 5.9993996E-01 )

 nodal point  x-rot      y-rot       z-rot       x-rot vel   y-rot vel   z-rot vel   x-rot acc   y-rot acc   z-rot acc
    22626 -2.02873E-05-8.87035E-07-9.57932E-07-5.90730E-05 3.90580E-06-1.99911E-06 2.51442E-04 7.41812E-06-6.09098E-05



 n o d a l   p r i n t   o u t   f o r   t i m e  s t e p    1401                              ( at time 6.9992995E-01 )

 nodal point  x-disp     y-disp      z-disp      x-vel       y-vel       z-vel      x-accl      y-accl      z-accl      x-coor      y-coor      z-coor
    22626 -5.09915E-05 6.85041E-03-1.31710E-02-4.90424E-04 1.96579E-02-3.89675E-02-5.35475E-03 2.95752E-02-7.97578E-02 4.65932E+00-2.81840E+01-4.49949E+01



 n o d a l   p r i n t   o u t   f o r   t i m e  s t e p    1401                              ( at time 6.9992995E-01 )

 nodal point  x-rot      y-rot       z-rot       x-rot vel   y-rot vel   z-rot vel   x-rot acc   y-rot acc   z-rot acc
    22626 -2.62090E-05-9.00938E-07-6.32531E-07-7.10132E-05 3.35277E-07 3.79551E-06-1.19414E-04-3.57088E-05 5.79520E-05



 n o d a l   p r i n t   o u t   f o r   t i m e  s t e p    1601                              ( at time 7.9991994E-01 )

 nodal point  x-disp     y-disp      z-disp      x-vel       y-vel       z-vel      x-accl      y-accl      z-accl      x-coor      y-coor      z-coor
    22626 -8.02773E-05 8.98673E-03-1.74643E-02-4.99700E-04 2.21618E-02-4.51219E-02-9.27719E-05 2.50416E-02-6.15505E-02 4.65929E+00-2.81818E+01-4.49992E+01



 n o d a l   p r i n t   o u t   f o r   t i m e  s t e p    1601                              ( at time 7.9991994E-01 )

 nodal point  x-rot      y-rot       z-rot       x-rot vel   y-rot vel   z-rot vel   x-rot acc   y-rot acc   z-rot acc
    22626 -3.43992E-05-8.77449E-07-5.14901E-07-9.20395E-05-4.79718E-06 1.61051E-06-2.10284E-04-5.13297E-05-2.18522E-05



 n o d a l   p r i n t   o u t   f o r   t i m e  s t e p    1801                              ( at time 8.9990994E-01 )

 nodal point  x-disp     y-disp      z-disp      x-vel       y-vel       z-vel      x-accl      y-accl      z-accl      x-coor      y-coor      z-coor
    22626 -1.16875E-04 1.12542E-02-2.19906E-02-2.87520E-04 2.40431E-02-4.55881E-02 2.12201E-03 1.88150E-02-4.66259E-03 4.65926E+00-2.81796E+01-4.50037E+01



 n o d a l   p r i n t   o u t   f o r   t i m e  s t e p    1801                              ( at time 8.9990994E-01 )

 nodal point  x-rot      y-rot       z-rot       x-rot vel   y-rot vel   z-rot vel   x-rot acc   y-rot acc   z-rot acc
    22626 -4.28177E-05-9.58008E-07-5.01677E-07-8.24778E-05 1.86340E-06-7.62432E-07 9.56264E-05 6.66125E-05-2.37318E-05



 n o d a l   p r i n t   o u t   f o r   t i m e  s t e p    2001                              ( at time 9.9989993E-01 )

 nodal point  x-disp     y-disp      z-disp      x-vel       y-vel       z-vel      x-accl      y-accl      z-accl      x-coor      y-coor      z-coor
    22626 -1.52029E-04 1.37912E-02-2.67304E-02-3.28678E-05 2.65026E-02-5.00362E-02 2.54678E-03 2.45971E-02-4.44851E-02 4.65922E+00-2.81770E+01-4.50084E+01



 n o d a l   p r i n t   o u t   f o r   t i m e  s t e p    2001                              ( at time 9.9989993E-01 )

 nodal point  x-rot      y-rot       z-rot       x-rot vel   y-rot vel   z-rot vel   x-rot acc   y-rot acc   z-rot acc
    22626 -5.18498E-05-9.07660E-07-4.38041E-07-1.06124E-04 1.23468E-06-3.10192E-06-2.36489E-04-6.28783E-06-2.33972E-05



 n o d a l   p r i n t   o u t   f o r   t i m e  s t e p    2201                              ( at time 1.0998899E+00 )

 nodal point  x-disp     y-disp      z-disp      x-vel       y-vel       z-vel      x-accl      y-accl      z-accl      x-coor      y-coor      z-coor
    22626 -1.59790E-04 1.65322E-02-3.20559E-02-3.42028E-04 2.88840E-02-5.60797E-02-3.09191E-03 2.38168E-02-6.04409E-02 4.65921E+00-2.81743E+01-4.50138E+01



 n o d a l   p r i n t   o u t   f o r   t i m e  s t e p    2201                              ( at time 1.0998899E+00 )

 nodal point  x-rot      y-rot       z-rot       x-rot vel   y-rot vel   z-rot vel   x-rot acc   y-rot acc   z-rot acc
    22626 -6.29461E-05-1.00466E-06-7.49659E-07-1.03660E-04-7.64197E-06-2.10341E-06 2.46491E-05-8.87754E-05 9.98606E-06



 n o d a l   p r i n t   o u t   f o r   t i m e  s t e p    2401                              ( at time 1.1998799E+00 )

 nodal point  x-disp     y-disp      z-disp      x-vel       y-vel       z-vel      x-accl      y-accl      z-accl      x-coor      y-coor      z-coor
    22626 -1.89825E-04 1.94752E-02-3.79327E-02-1.98334E-04 3.02276E-02-6.12090E-02 1.43708E-03 1.34369E-02-5.12988E-02 4.65919E+00-2.81714E+01-4.50197E+01



 n o d a l   p r i n t   o u t   f o r   t i m e  s t e p    2401                              ( at time 1.1998799E+00 )

 nodal point  x-rot      y-rot       z-rot       x-rot vel   y-rot vel   z-rot vel   x-rot acc   y-rot acc   z-rot acc
    22626 -7.29503E-05-1.61424E-06-9.90567E-07-1.01231E-04-7.18310E-06-2.98937E-06 2.42899E-05 4.58911E-06-8.86045E-06



 n o d a l   p r i n t   o u t   f o r   t i m e  s t e p    2601                              ( at time 1.2998699E+00 )

 nodal point  x-disp     y-disp      z-disp      x-vel       y-vel       z-vel      x-accl      y-accl      z-accl      x-coor      y-coor      z-coor
    22626 -2.23869E-04 2.26249E-02-4.42079E-02-2.46744E-04 3.25991E-02-6.40519E-02-4.84148E-04 2.37178E-02-2.84314E-02 4.65915E+00-2.81682E+01-4.50259E+01



 n o d a l   p r i n t   o u t   f o r   t i m e  s t e p    2601                              ( at time 1.2998699E+00 )

 nodal point  x-rot      y-rot       z-rot       x-rot vel   y-rot vel   z-rot vel   x-rot acc   y-rot acc   z-rot acc
    22626 -8.39953E-05-2.17038E-06-1.24600E-06-1.29278E-04 2.69993E-08-1.42466E-06-2.80501E-04 7.21082E-05 1.56487E-05



 n o d a l   p r i n t   o u t   f o r   t i m e  s t e p    2801                              ( at time 1.3998599E+00 )

 nodal point  x-disp     y-disp      z-disp      x-vel       y-vel       z-vel      x-accl      y-accl      z-accl      x-coor      y-coor      z-coor
    22626 -2.51461E-04 2.59924E-02-5.07121E-02-4.50757E-04 3.45165E-02-6.66724E-02-2.04034E-03 1.91753E-02-2.62073E-02 4.65912E+00-2.81648E+01-4.50324E+01



 n o d a l   p r i n t   o u t   f o r   t i m e  s t e p    2801                              ( at time 1.3998599E+00 )

 nodal point  x-rot      y-rot       z-rot       x-rot vel   y-rot vel   z-rot vel   x-rot acc   y-rot acc   z-rot acc
    22626 -9.73983E-05-2.01097E-06-1.34473E-06-1.36916E-04-1.90562E-07 1.71428E-06-7.63826E-05-2.17583E-06 3.13925E-05



 n o d a l   p r i n t   o u t   f o r   t i m e  s t e p    3001                              ( at time 1.4998499E+00 )

 nodal point  x-disp     y-disp      z-disp      x-vel       y-vel       z-vel      x-accl      y-accl      z-accl      x-coor      y-coor      z-coor
    22626 -2.96349E-04 2.95911E-02-5.77242E-02-4.46847E-04 3.72808E-02-7.39876E-02 3.91020E-05 2.76458E-02-7.31593E-02 4.65908E+00-2.81612E+01-4.50394E+01



 n o d a l   p r i n t   o u t   f o r   t i m e  s t e p    3001                              ( at time 1.4998499E+00 )

 nodal point  x-rot      y-rot       z-rot       x-rot vel   y-rot vel   z-rot vel   x-rot acc   y-rot acc   z-rot acc
    22626 -1.10708E-04-2.03100E-06-1.27055E-06-1.28607E-04-1.08790E-06-1.65894E-06 8.30965E-05-8.97429E-06-3.37355E-05



 n o d a l   p r i n t   o u t   f o r   t i m e  s t e p    3201                              ( at time 1.5998399E+00 )

 nodal point  x-disp     y-disp      z-disp      x-vel       y-vel       z-vel      x-accl      y-accl      z-accl      x-coor      y-coor      z-coor
    22626 -3.60055E-04 3.34890E-02-6.54465E-02-5.82917E-04 4.05416E-02-7.97043E-02-1.36083E-03 3.26115E-02-5.71727E-02 4.65902E+00-2.81573E+01-4.50472E+01



 n o d a l   p r i n t   o u t   f o r   t i m e  s t e p    3201                              ( at time 1.5998399E+00 )

 nodal point  x-rot      y-rot       z-rot       x-rot vel   y-rot vel   z-rot vel   x-rot acc   y-rot acc   z-rot acc
    22626 -1.23312E-04-2.14820E-06-1.09801E-06-1.34912E-04-2.90419E-06 3.09647E-06-6.30552E-05-1.81647E-05 4.75588E-05



 n o d a l   p r i n t   o u t   f o r   t i m e  s t e p    3401                              ( at time 1.6998299E+00 )

 nodal point  x-disp     y-disp      z-disp      x-vel       y-vel       z-vel      x-accl      y-accl      z-accl      x-coor      y-coor      z-coor
    22626 -4.21720E-04 3.76416E-02-7.35823E-02-7.25877E-04 4.22408E-02-8.25916E-02-1.42975E-03 1.69933E-02-2.88761E-02 4.65895E+00-2.81532E+01-4.50553E+01



 n o d a l   p r i n t   o u t   f o r   t i m e  s t e p    3401                              ( at time 1.6998299E+00 )

 nodal point  x-rot      y-rot       z-rot       x-rot vel   y-rot vel   z-rot vel   x-rot acc   y-rot acc   z-rot acc
    22626 -1.37610E-04-2.15232E-06-9.09034E-07-1.47561E-04 1.53920E-06 3.92253E-06-1.26507E-04 4.44383E-05 8.26142E-06



 n o d a l   p r i n t   o u t   f o r   t i m e  s t e p    3601                              ( at time 1.7998199E+00 )

 nodal point  x-disp     y-disp      z-disp      x-vel       y-vel       z-vel      x-accl      y-accl      z-accl      x-coor      y-coor      z-coor
    22626 -4.84843E-04 4.19001E-02-8.19598E-02-5.09887E-04 4.32792E-02-8.48697E-02 2.16012E-03 1.03851E-02-2.27833E-02 4.65889E+00-2.81489E+01-4.50637E+01



 n o d a l   p r i n t   o u t   f o r   t i m e  s t e p    3601                              ( at time 1.7998199E+00 )

 nodal point  x-rot      y-rot       z-rot       x-rot vel   y-rot vel   z-rot vel   x-rot acc   y-rot acc   z-rot acc
    22626 -1.52822E-04-2.06417E-06-7.77129E-07-1.49809E-04 1.46648E-06-1.52043E-06-2.24805E-05-7.27224E-07-5.44351E-05



 n o d a l   p r i n t   o u t   f o r   t i m e  s t e p    3801                              ( at time 1.8998099E+00 )

 nodal point  x-disp     y-disp      z-disp      x-vel       y-vel       z-vel      x-accl      y-accl      z-accl      x-coor      y-coor      z-coor
    22626 -5.44067E-04 4.63775E-02-9.06359E-02-5.23472E-04 4.60741E-02-8.88744E-02-1.35866E-04 2.79521E-02-4.00506E-02 4.65883E+00-2.81445E+01-4.50724E+01



 n o d a l   p r i n t   o u t   f o r   t i m e  s t e p    3801                              ( at time 1.8998099E+00 )

 nodal point  x-rot      y-rot       z-rot       x-rot vel   y-rot vel   z-rot vel   x-rot acc   y-rot acc   z-rot acc
    22626 -1.67676E-04-1.85424E-06-6.47770E-07-1.49857E-04-1.51277E-06-5.57373E-07-4.81862E-07-2.97955E-05 9.63154E-06



 n o d a l   p r i n t   o u t   f o r   t i m e  s t e p    4001                              ( at time 1.9997999E+00 )

 nodal point  x-disp     y-disp      z-disp      x-vel       y-vel       z-vel      x-accl      y-accl      z-accl      x-coor      y-coor      z-coor
    22626 -5.94945E-04 5.10272E-02-9.97453E-02-5.46965E-04 4.71708E-02-9.31081E-02-2.34955E-04 1.09676E-02-4.23415E-02 4.65878E+00-2.81398E+01-4.50815E+01



 n o d a l   p r i n t   o u t   f o r   t i m e  s t e p    4001                              ( at time 1.9997999E+00 )

 nodal point  x-rot      y-rot       z-rot       x-rot vel   y-rot vel   z-rot vel   x-rot acc   y-rot acc   z-rot acc
    22626 -1.82766E-04-2.08975E-06-6.97894E-07-1.55939E-04-4.64473E-06-1.50682E-07-6.08185E-05-3.13227E-05 4.06732E-06



 n o d a l   p r i n t   o u t   f o r   t i m e  s t e p    4201                              ( at time 2.0997899E+00 )

 nodal point  x-disp     y-disp      z-disp      x-vel       y-vel       z-vel      x-accl      y-accl      z-accl      x-coor      y-coor      z-coor
    22626 -6.49027E-04 5.57836E-02-1.09162E-01-5.58805E-04 4.81940E-02-9.53050E-02-1.18409E-04 1.02339E-02-2.19716E-02 4.65873E+00-2.81350E+01-4.50909E+01



 n o d a l   p r i n t   o u t   f o r   t i m e  s t e p    4201                              ( at time 2.0997899E+00 )

 nodal point  x-rot      y-rot       z-rot       x-rot vel   y-rot vel   z-rot vel   x-rot acc   y-rot acc   z-rot acc
    22626 -1.97947E-04-2.48041E-06-8.61404E-07-1.50229E-04-1.48589E-06 2.01333E-06 5.71035E-05 3.15916E-05 2.16423E-05



 n o d a l   p r i n t   o u t   f o r   t i m e  s t e p    4401                              ( at time 2.1997798E+00 )

 nodal point  x-disp     y-disp      z-disp      x-vel       y-vel       z-vel      x-accl      y-accl      z-accl      x-coor      y-coor      z-coor
    22626 -7.07753E-04 6.06673E-02-1.18761E-01-4.96046E-04 4.91606E-02-9.67320E-02 6.27660E-04 9.66662E-03-1.42717E-02 4.65867E+00-2.81302E+01-4.51005E+01



 n o d a l   p r i n t   o u t   f o r   t i m e  s t e p    4401                              ( at time 2.1997798E+00 )

 nodal point  x-rot      y-rot       z-rot       x-rot vel   y-rot vel   z-rot vel   x-rot acc   y-rot acc   z-rot acc
    22626 -2.13319E-04-2.58719E-06-8.58888E-07-1.59227E-04-1.67288E-06-1.10111E-06-8.99913E-05-1.87003E-06-3.11476E-05



 n o d a l   p r i n t   o u t   f o r   t i m e  s t e p    4601                              ( at time 2.2997698E+00 )

 nodal point  x-disp     y-disp      z-disp      x-vel       y-vel       z-vel      x-accl      y-accl      z-accl      x-coor      y-coor      z-coor
    22626 -7.62871E-04 6.56142E-02-1.28510E-01-6.46596E-04 5.01815E-02-9.87406E-02-1.50565E-03 1.02097E-02-2.00880E-02 4.65861E+00-2.81252E+01-4.51102E+01



 n o d a l   p r i n t   o u t   f o r   t i m e  s t e p    4601                              ( at time 2.2997698E+00 )

 nodal point  x-rot      y-rot       z-rot       x-rot vel   y-rot vel   z-rot vel   x-rot acc   y-rot acc   z-rot acc
    22626 -2.29837E-04-2.52063E-06-8.67296E-07-1.61489E-04 8.59750E-07-1.02216E-06-2.26227E-05 2.53288E-05 7.89590E-07



 n o d a l   p r i n t   o u t   f o r   t i m e  s t e p    4801                              ( at time 2.3997598E+00 )

 nodal point  x-disp     y-disp      z-disp      x-vel       y-vel       z-vel      x-accl      y-accl      z-accl      x-coor      y-coor      z-coor
    22626 -8.37329E-04 7.07390E-02-1.38609E-01-7.63737E-04 5.20328E-02-1.03268E-01-1.17153E-03 1.85150E-02-4.52749E-02 4.65854E+00-2.81201E+01-4.51203E+01



 n o d a l   p r i n t   o u t   f o r   t i m e  s t e p    4801                              ( at time 2.3997598E+00 )

 nodal point  x-rot      y-rot       z-rot       x-rot vel   y-rot vel   z-rot vel   x-rot acc   y-rot acc   z-rot acc
    22626 -2.45591E-04-2.51298E-06-5.95595E-07-1.55355E-04-9.47828E-08 4.17489E-06 6.13504E-05-9.54629E-06 5.19758E-05



 n o d a l   p r i n t   o u t   f o r   t i m e  s t e p    5001                              ( at time 2.4997498E+00 )

 nodal point  x-disp     y-disp      z-disp      x-vel       y-vel       z-vel      x-accl      y-accl      z-accl      x-coor      y-coor      z-coor
    22626 -9.18497E-04 7.60401E-02-1.49106E-01-9.24853E-04 5.34331E-02-1.05952E-01-1.61131E-03 1.40042E-02-2.68432E-02 4.65846E+00-2.81148E+01-4.51308E+01



 n o d a l   p r i n t   o u t   f o r   t i m e  s t e p    5001                              ( at time 2.4997498E+00 )

 nodal point  x-rot      y-rot       z-rot       x-rot vel   y-rot vel   z-rot vel   x-rot acc   y-rot acc   z-rot acc
    22626 -2.61161E-04-2.39276E-06-3.34284E-07-1.54635E-04 1.77624E-06 4.34511E-06 7.19838E-06 1.87121E-05 1.70234E-06



 n o d a l   p r i n t   o u t   f o r   t i m e  s t e p    5201                              ( at time 2.5997398E+00 )

 nodal point  x-disp     y-disp      z-disp      x-vel       y-vel       z-vel      x-accl      y-accl      z-accl      x-coor      y-coor      z-coor
    22626 -1.00927E-03 8.13921E-02-1.59710E-01-9.92271E-04 5.34913E-02-1.06027E-01-6.74254E-04 5.82098E-04-7.56981E-04 4.65837E+00-2.81094E+01-4.51414E+01



 n o d a l   p r i n t   o u t   f o r   t i m e  s t e p    5201                              ( at time 2.5997398E+00 )

 nodal point  x-rot      y-rot       z-rot       x-rot vel   y-rot vel   z-rot vel   x-rot acc   y-rot acc   z-rot acc
    22626 -2.76669E-04-2.06542E-06 5.81649E-08-1.51689E-04 5.17042E-06 4.91418E-06 2.94590E-05 3.39452E-05 5.69128E-06



 n o d a l   p r i n t   o u t   f o r   t i m e  s t e p    5401                              ( at time 2.6997298E+00 )

 nodal point  x-disp     y-disp      z-disp      x-vel       y-vel       z-vel      x-accl      y-accl      z-accl      x-coor      y-coor      z-coor
    22626 -1.10740E-03 8.67281E-02-1.70314E-01-8.15950E-04 5.35640E-02-1.06224E-01 1.76338E-03 7.27062E-04-1.96923E-03 4.65827E+00-2.81041E+01-4.51520E+01



 n o d a l   p r i n t   o u t   f o r   t i m e  s t e p    5401                              ( at time 2.6997298E+00 )

 nodal point  x-rot      y-rot       z-rot       x-rot vel   y-rot vel   z-rot vel   x-rot acc   y-rot acc   z-rot acc
    22626 -2.92382E-04-1.62677E-06 5.83563E-07-1.63138E-04 5.45234E-06 3.63148E-06-1.14498E-04 2.81948E-06-1.28283E-05



 n o d a l   p r i n t   o u t   f o r   t i m e  s t e p    5601                              ( at time 2.7997198E+00 )

 nodal point  x-disp     y-disp      z-disp      x-vel       y-vel       z-vel      x-accl      y-accl      z-accl      x-coor      y-coor      z-coor
    22626 -1.19439E-03 9.21213E-02-1.80982E-01-8.84148E-04 5.42822E-02-1.07484E-01-6.82049E-04 7.18335E-03-1.25978E-02 4.65818E+00-2.80987E+01-4.51627E+01



 n o d a l   p r i n t   o u t   f o r   t i m e  s t e p    5601                              ( at time 2.7997198E+00 )

 nodal point  x-rot      y-rot       z-rot       x-rot vel   y-rot vel   z-rot vel   x-rot acc   y-rot acc   z-rot acc
    22626 -3.07869E-04-1.11482E-06 9.99349E-07-1.44624E-04 3.02629E-06 4.37357E-06 1.85163E-04-2.42630E-05 7.42165E-06



 n o d a l   p r i n t   o u t   f o r   t i m e  s t e p    5801                              ( at time 2.8997098E+00 )

 nodal point  x-disp     y-disp      z-disp      x-vel       y-vel       z-vel      x-accl      y-accl      z-accl      x-coor      y-coor      z-coor
    22626 -1.27560E-03 9.75420E-02-1.91832E-01-7.38977E-04 5.41932E-02-1.09469E-01 1.45187E-03-8.90732E-04-1.98498E-02 4.65810E+00-2.80933E+01-4.51736E+01



 n o d a l   p r i n t   o u t   f o r   t i m e  s t e p    5801                              ( at time 2.8997098E+00 )

 nodal point  x-rot      y-rot       z-rot       x-rot vel   y-rot vel   z-rot vel   x-rot acc   y-rot acc   z-rot acc
    22626 -3.21820E-04-9.20967E-07 1.29869E-06-1.39906E-04 5.95337E-07 3.59062E-06 4.71755E-05-2.43119E-05-7.83031E-06



 n o d a l   p r i n t   o u t   f o r   t i m e  s t e p    6001                              ( at time 2.9996998E+00 )

 nodal point  x-disp     y-disp      z-disp      x-vel       y-vel       z-vel      x-accl      y-accl      z-accl      x-coor      y-coor      z-coor
    22626 -1.35915E-03 1.02933E-01-2.02795E-01-7.26996E-04 5.35787E-02-1.09332E-01 1.19819E-04-6.14499E-03 1.36598E-03 4.65802E+00-2.80879E+01-4.51845E+01



 n o d a l   p r i n t   o u t   f o r   t i m e  s t e p    6001                              ( at time 2.9996998E+00 )

 nodal point  x-rot      y-rot       z-rot       x-rot vel   y-rot vel   z-rot vel   x-rot acc   y-rot acc   z-rot acc
    22626 -3.36597E-04-8.82030E-07 1.48144E-06-1.50133E-04 4.31835E-07 2.46911E-06-1.02277E-04-1.63518E-06-1.12162E-05



 n o d a l   p r i n t   o u t   f o r   t i m e  s t e p    6201                              ( at time 3.0996898E+00 )

 nodal point  x-disp     y-disp      z-disp      x-vel       y-vel       z-vel      x-accl      y-accl      z-accl      x-coor      y-coor      z-coor
    22626 -1.42800E-03 1.08282E-01-2.13684E-01-7.44271E-04 5.35996E-02-1.08919E-01-1.72769E-04 2.08898E-04 4.13303E-03 4.65795E+00-2.80825E+01-4.51954E+01



 n o d a l   p r i n t   o u t   f o r   t i m e  s t e p    6201                              ( at time 3.0996898E+00 )

 nodal point  x-rot      y-rot       z-rot       x-rot vel   y-rot vel   z-rot vel   x-rot acc   y-rot acc   z-rot acc
    22626 -3.51632E-04-8.08596E-07 1.74064E-06-1.49239E-04 4.27319E-08 4.52164E-06 8.94640E-06-3.89142E-06 2.05273E-05



 n o d a l   p r i n t   o u t   f o r   t i m e  s t e p    6401                              ( at time 3.1996798E+00 )

 nodal point  x-disp     y-disp      z-disp      x-vel       y-vel       z-vel      x-accl      y-accl      z-accl      x-coor      y-coor      z-coor
    22626 -1.49371E-03 1.13660E-01-2.24665E-01-6.49025E-04 5.39972E-02-1.10858E-01 9.52549E-04 3.97666E-03-1.93889E-02 4.65788E+00-2.80772E+01-4.52064E+01



 n o d a l   p r i n t   o u t   f o r   t i m e  s t e p    6401                              ( at time 3.1996798E+00 )

 nodal point  x-rot      y-rot       z-rot       x-rot vel   y-rot vel   z-rot vel   x-rot acc   y-rot acc   z-rot acc
    22626 -3.66473E-04-6.84344E-07 1.88954E-06-1.41962E-04 1.48516E-06 1.15899E-06 7.27710E-05 1.44257E-05-3.36299E-05



 n o d a l   p r i n t   o u t   f o r   t i m e  s t e p    6601                              ( at time 3.2996698E+00 )

 nodal point  x-disp     y-disp      z-disp      x-vel       y-vel       z-vel      x-accl      y-accl      z-accl      x-coor      y-coor      z-coor
    22626 -1.57189E-03 1.19081E-01-2.35856E-01-8.23472E-04 5.42989E-02-1.12740E-01-1.74464E-03 3.01723E-03-1.88255E-02 4.65780E+00-2.80717E+01-4.52176E+01



 n o d a l   p r i n t   o u t   f o r   t i m e  s t e p    6601                              ( at time 3.2996698E+00 )

 nodal point  x-rot      y-rot       z-rot       x-rot vel   y-rot vel   z-rot vel   x-rot acc   y-rot acc   z-rot acc
    22626 -3.80616E-04-5.12475E-07 2.14715E-06-1.38066E-04 2.37954E-06 2.71454E-06 3.89648E-05 8.94473E-06 1.55571E-05



 n o d a l   p r i n t   o u t   f o r   t i m e  s t e p    6801                              ( at time 3.3996598E+00 )

 nodal point  x-disp     y-disp      z-disp      x-vel       y-vel       z-vel      x-accl      y-accl      z-accl      x-coor      y-coor      z-coor
    22626 -1.65931E-03 1.24510E-01-2.47149E-01-9.67305E-04 5.40528E-02-1.13025E-01-1.43848E-03-2.46162E-03-2.84827E-03 4.65772E+00-2.80663E+01-4.52289E+01



 n o d a l   p r i n t   o u t   f o r   t i m e  s t e p    6801                              ( at time 3.3996598E+00 )

 nodal point  x-rot      y-rot       z-rot       x-rot vel   y-rot vel   z-rot vel   x-rot acc   y-rot acc   z-rot acc
    22626 -3.94339E-04-3.65927E-07 2.49799E-06-1.36962E-04 3.68118E-06 6.20235E-06 1.10424E-05 1.30177E-05 3.48816E-05



 n o d a l   p r i n t   o u t   f o r   t i m e  s t e p    7001                              ( at time 3.4996498E+00 )

 nodal point  x-disp     y-disp      z-disp      x-vel       y-vel       z-vel      x-accl      y-accl      z-accl      x-coor      y-coor      z-coor
    22626 -1.75271E-03 1.29862E-01-2.58387E-01-9.63330E-04 5.30909E-02-1.11677E-01 3.97534E-05-9.62019E-03 1.34821E-02 4.65762E+00-2.80610E+01-4.52401E+01



 n o d a l   p r i n t   o u t   f o r   t i m e  s t e p    7001                              ( at time 3.4996498E+00 )

 nodal point  x-rot      y-rot       z-rot       x-rot vel   y-rot vel   z-rot vel   x-rot acc   y-rot acc   z-rot acc
    22626 -4.08258E-04-2.74267E-08 2.95062E-06-1.37155E-04 4.63432E-06 4.29674E-06-1.93444E-06 9.53235E-06-1.90581E-05



 n o d a l   p r i n t   o u t   f o r   t i m e  s t e p    7201                              ( at time 3.5996397E+00 )

 nodal point  x-disp     y-disp      z-disp      x-vel       y-vel       z-vel      x-accl      y-accl      z-accl      x-coor      y-coor      z-coor
    22626 -1.84478E-03 1.35133E-01-2.69485E-01-8.05989E-04 5.22270E-02-1.10748E-01 1.57358E-03-8.63911E-03 9.28719E-03 4.65753E+00-2.80557E+01-4.52512E+01



 n o d a l   p r i n t   o u t   f o r   t i m e  s t e p    7201                              ( at time 3.5996397E+00 )

 nodal point  x-rot      y-rot       z-rot       x-rot vel   y-rot vel   z-rot vel   x-rot acc   y-rot acc   z-rot acc
    22626 -4.21651E-04 6.05595E-07 3.50195E-06-1.35634E-04 6.02765E-06 3.39923E-06 1.52122E-05 1.39347E-05-8.97600E-06



 n o d a l   p r i n t   o u t   f o r   t i m e  s t e p    7401                              ( at time 3.6996297E+00 )

 nodal point  x-disp     y-disp      z-disp      x-vel       y-vel       z-vel      x-accl      y-accl      z-accl      x-coor      y-coor      z-coor
    22626 -1.92987E-03 1.40319E-01-2.80559E-01-8.24332E-04 5.15984E-02-1.10855E-01-1.83449E-04-6.28664E-03-1.06807E-03 4.65744E+00-2.80505E+01-4.52623E+01



 n o d a l   p r i n t   o u t   f o r   t i m e  s t e p    7401                              ( at time 3.6996297E+00 )

 nodal point  x-rot      y-rot       z-rot       x-rot vel   y-rot vel   z-rot vel   x-rot acc   y-rot acc   z-rot acc
    22626 -4.34808E-04 1.07966E-06 3.88262E-06-1.29486E-04 2.56742E-06 3.04475E-06 6.14883E-05-3.46057E-05-3.54518E-06



 n o d a l   p r i n t   o u t   f o r   t i m e  s t e p    7601                              ( at time 3.7996197E+00 )

 nodal point  x-disp     y-disp      z-disp      x-vel       y-vel       z-vel      x-accl      y-accl      z-accl      x-coor      y-coor      z-coor
    22626 -2.01072E-03 1.45439E-01-2.91615E-01-7.59911E-04 5.07782E-02-1.10139E-01 6.44273E-04-8.20347E-03 7.16088E-03 4.65736E+00-2.80454E+01-4.52733E+01



 n o d a l   p r i n t   o u t   f o r   t i m e  s t e p    7601                              ( at time 3.7996197E+00 )

 nodal point  x-rot      y-rot       z-rot       x-rot vel   y-rot vel   z-rot vel   x-rot acc   y-rot acc   z-rot acc
    22626 -4.47343E-04 1.19429E-06 4.17322E-06-1.28621E-04-1.27223E-07 2.10714E-06 8.64951E-06-2.69492E-05-9.37698E-06



 n o d a l   p r i n t   o u t   f o r   t i m e  s t e p    7801                              ( at time 3.8996097E+00 )

 nodal point  x-disp     y-disp      z-disp      x-vel       y-vel       z-vel      x-accl      y-accl      z-accl      x-coor      y-coor      z-coor
    22626 -2.06967E-03 1.50470E-01-3.02549E-01-4.24119E-04 4.98373E-02-1.08412E-01 3.35825E-03-9.40945E-03 1.72733E-02 4.65731E+00-2.80404E+01-4.52843E+01



 n o d a l   p r i n t   o u t   f o r   t i m e  s t e p    7801                              ( at time 3.8996097E+00 )

 nodal point  x-rot      y-rot       z-rot       x-rot vel   y-rot vel   z-rot vel   x-rot acc   y-rot acc   z-rot acc
    22626 -4.60235E-04 1.27708E-06 4.52576E-06-1.35421E-04 2.59214E-06 5.08772E-06-6.80033E-05 2.71964E-05 2.98087E-05



 n o d a l   p r i n t   o u t   f o r   t i m e  s t e p    8001                              ( at time 3.9995997E+00 )

 nodal point  x-disp     y-disp      z-disp      x-vel       y-vel       z-vel      x-accl      y-accl      z-accl      x-coor      y-coor      z-coor
    22626 -2.09464E-03 1.55436E-01-3.13285E-01-7.49289E-05 4.97545E-02-1.06397E-01 3.49226E-03-8.28290E-04 2.01478E-02 4.65728E+00-2.80354E+01-4.52950E+01



 n o d a l   p r i n t   o u t   f o r   t i m e  s t e p    8001                              ( at time 3.9995997E+00 )

 nodal point  x-rot      y-rot       z-rot       x-rot vel   y-rot vel   z-rot vel   x-rot acc   y-rot acc   z-rot acc
    22626 -4.73609E-04 1.51213E-06 5.09560E-06-1.29716E-04 3.51225E-06 1.05710E-05 5.70590E-05 9.20196E-06 5.48379E-05



 n o d a l   p r i n t   o u t   f o r   t i m e  s t e p    8201                              ( at time 4.0995897E+00 )

 nodal point  x-disp     y-disp      z-disp      x-vel       y-vel       z-vel      x-accl      y-accl      z-accl      x-coor      y-coor      z-coor
    22626 -2.10362E-03 1.60415E-01-3.23890E-01-1.27461E-04 4.99078E-02-1.05866E-01-5.25375E-04 1.53307E-03 5.30698E-03 4.65727E+00-2.80304E+01-4.53056E+01



 n o d a l   p r i n t   o u t   f o r   t i m e  s t e p    8201                              ( at time 4.0995897E+00 )

 nodal point  x-rot      y-rot       z-rot       x-rot vel   y-rot vel   z-rot vel   x-rot acc   y-rot acc   z-rot acc
    22626 -4.85928E-04 1.81056E-06 5.92566E-06-1.19357E-04 7.95941E-07 6.07464E-06 1.03592E-04-2.71657E-05-4.49676E-05



 n o d a l   p r i n t   o u t   f o r   t i m e  s t e p    8401                              ( at time 4.1995797E+00 )

 nodal point  x-disp     y-disp      z-disp      x-vel       y-vel       z-vel      x-accl      y-accl      z-accl      x-coor      y-coor      z-coor
    22626 -2.13576E-03 1.65479E-01-3.34469E-01-3.57054E-04 5.13844E-02-1.05435E-01-2.29616E-03 1.47671E-02 4.31700E-03 4.65724E+00-2.80254E+01-4.53162E+01



 n o d a l   p r i n t   o u t   f o r   t i m e  s t e p    8401                              ( at time 4.1995797E+00 )

 nodal point  x-rot      y-rot       z-rot       x-rot vel   y-rot vel   z-rot vel   x-rot acc   y-rot acc   z-rot acc
    22626 -4.98174E-04 1.92466E-06 6.33249E-06-1.23038E-04 3.84203E-06 7.98413E-06-3.68118E-05 3.04639E-05 1.90968E-05



 n o d a l   p r i n t   o u t   f o r   t i m e  s t e p    8601                              ( at time 4.2995697E+00 )

 nodal point  x-disp     y-disp      z-disp      x-vel       y-vel       z-vel      x-accl      y-accl      z-accl      x-coor      y-coor      z-coor
    22626 -2.13957E-03 1.70690E-01-3.44954E-01 3.06175E-04 5.29335E-02-1.04014E-01 6.63295E-03 1.54930E-02 1.42103E-02 4.65724E+00-2.80201E+01-4.53267E+01



 n o d a l   p r i n t   o u t   f o r   t i m e  s t e p    8601                              ( at time 4.2995697E+00 )

 nodal point  x-rot      y-rot       z-rot       x-rot vel   y-rot vel   z-rot vel   x-rot acc   y-rot acc   z-rot acc
    22626 -5.10411E-04 2.71786E-06 8.11662E-06-1.23372E-04 1.20805E-05 2.28035E-05-3.33971E-06 8.23928E-05 1.48208E-04



 n o d a l   p r i n t   o u t   f o r   t i m e  s t e p    8801                              ( at time 4.3995597E+00 )

 nodal point  x-disp     y-disp      z-disp      x-vel       y-vel       z-vel      x-accl      y-accl      z-accl      x-coor      y-coor      z-coor
    22626 -2.11242E-03 1.76034E-01-3.55227E-01 6.24517E-05 5.40195E-02-1.01465E-01-2.43748E-03 1.08612E-02 2.54912E-02 4.65726E+00-2.80148E+01-4.53369E+01



 n o d a l   p r i n t   o u t   f o r   t i m e  s t e p    8801                              ( at time 4.3995597E+00 )

 nodal point  x-rot      y-rot       z-rot       x-rot vel   y-rot vel   z-rot vel   x-rot acc   y-rot acc   z-rot acc
    22626 -5.23186E-04 3.84819E-06 1.01309E-05-1.33387E-04 9.37699E-06 1.60155E-05-1.00159E-04-2.70375E-05-6.78865E-05



 n o d a l   p r i n t   o u t   f o r   t i m e  s t e p    9001                              ( at time 4.4995497E+00 )

 nodal point  x-disp     y-disp      z-disp      x-vel       y-vel       z-vel      x-accl      y-accl      z-accl      x-coor      y-coor      z-coor
    22626 -2.13670E-03 1.81591E-01-3.65286E-01-2.27854E-04 5.75244E-02-1.00268E-01-2.90334E-03 3.50521E-02 1.19675E-02 4.65724E+00-2.80092E+01-4.53470E+01



 n o d a l   p r i n t   o u t   f o r   t i m e  s t e p    9001                              ( at time 4.4995497E+00 )

 nodal point  x-rot      y-rot       z-rot       x-rot vel   y-rot vel   z-rot vel   x-rot acc   y-rot acc   z-rot acc
    22626 -5.37982E-04 4.69479E-06 1.17193E-05-1.59527E-04 7.40672E-06 1.61192E-05-2.61428E-04-1.97046E-05 1.03756E-06



 n o d a l   p r i n t   o u t   f o r   t i m e  s t e p    9201                              ( at time 4.5995397E+00 )

 nodal point  x-disp     y-disp      z-disp      x-vel       y-vel       z-vel      x-accl      y-accl      z-accl      x-coor      y-coor      z-coor
    22626 -2.12700E-03 1.87574E-01-3.75278E-01 3.70950E-04 6.21748E-02-9.94971E-02 5.98865E-03 4.65084E-02 7.71384E-03 4.65725E+00-2.80033E+01-4.53570E+01



 n o d a l   p r i n t   o u t   f o r   t i m e  s t e p    9201                              ( at time 4.5995397E+00 )

 nodal point  x-rot      y-rot       z-rot       x-rot vel   y-rot vel   z-rot vel   x-rot acc   y-rot acc   z-rot acc
    22626 -5.55133E-04 5.56558E-06 1.33540E-05-1.84070E-04 7.73950E-06 1.50698E-05-2.45455E-04 3.32807E-06-1.04951E-05



 n o d a l   p r i n t   o u t   f o r   t i m e  s t e p    9401                              ( at time 4.6995297E+00 )

 nodal point  x-disp     y-disp      z-disp      x-vel       y-vel       z-vel      x-accl      y-accl      z-accl      x-coor      y-coor      z-coor
    22626 -2.08895E-03 1.94036E-01-3.85131E-01 3.72535E-04 6.73670E-02-9.75843E-02 1.58446E-05 5.19280E-02 1.91303E-02 4.65729E+00-2.79968E+01-4.53669E+01



 n o d a l   p r i n t   o u t   f o r   t i m e  s t e p    9401                              ( at time 4.6995297E+00 )

 nodal point  x-rot      y-rot       z-rot       x-rot vel   y-rot vel   z-rot vel   x-rot acc   y-rot acc   z-rot acc
    22626 -5.75789E-04 6.48611E-06 1.51824E-05-2.32682E-04 7.33163E-06 2.17828E-05-4.86165E-04-4.07911E-06 6.71363E-05



 n o d a l   p r i n t   o u t   f o r   t i m e  s t e p    9601                              ( at time 4.7995197E+00 )

 nodal point  x-disp     y-disp      z-disp      x-vel       y-vel       z-vel      x-accl      y-accl      z-accl      x-coor      y-coor      z-coor
    22626 -2.04706E-03 2.01118E-01-3.94791E-01 4.27112E-04 7.47036E-02-9.54660E-02 5.45834E-04 7.33728E-02 2.11847E-02 4.65733E+00-2.79897E+01-4.53765E+01



 n o d a l   p r i n t   o u t   f o r   t i m e  s t e p    9601                              ( at time 4.7995197E+00 )

 nodal point  x-rot      y-rot       z-rot       x-rot vel   y-rot vel   z-rot vel   x-rot acc   y-rot acc   z-rot acc
    22626 -6.02097E-04 6.65638E-06 1.66524E-05-2.93089E-04-8.30071E-07 7.73952E-06-6.04130E-04-8.16252E-05-1.40447E-04



 n o d a l   p r i n t   o u t   f o r   t i m e  s t e p    9801                              ( at time 4.8995097E+00 )

 nodal point  x-disp     y-disp      z-disp      x-vel       y-vel       z-vel      x-accl      y-accl      z-accl      x-coor      y-coor      z-coor
    22626 -2.00696E-03 2.08989E-01-4.04213E-01 3.10278E-04 8.27170E-02-9.28711E-02-1.16847E-03 8.01425E-02 2.59522E-02 4.65737E+00-2.79818E+01-4.53859E+01



 n o d a l   p r i n t   o u t   f o r   t i m e  s t e p    9801                              ( at time 4.8995097E+00 )

 nodal point  x-rot      y-rot       z-rot       x-rot vel   y-rot vel   z-rot vel   x-rot acc   y-rot acc   z-rot acc
    22626 -6.34351E-04 6.83367E-06 1.72447E-05-3.47843E-04 5.06470E-06 5.17977E-06-5.47592E-04 5.89537E-05-2.56000E-05



 n o d a l   p r i n t   o u t   f o r   t i m e  s t e p   10001                              ( at time 4.9994997E+00 )

 nodal point  x-disp     y-disp      z-disp      x-vel       y-vel       z-vel      x-accl      y-accl      z-accl      x-coor      y-coor      z-coor
    22626 -1.97027E-03 2.17732E-01-4.13457E-01 4.76342E-04 9.27124E-02-9.24618E-02 1.66080E-03 9.99633E-02 4.09345E-03 4.65740E+00-2.79731E+01-4.53952E+01



 n o d a l   p r i n t   o u t   f o r   t i m e  s t e p   10001                              ( at time 4.9994997E+00 )

 nodal point  x-rot      y-rot       z-rot       x-rot vel   y-rot vel   z-rot vel   x-rot acc   y-rot acc   z-rot acc
    22626 -6.72992E-04 7.02075E-06 1.75805E-05-4.24421E-04-8.33807E-07 4.01909E-06-7.65862E-04-5.89908E-05-1.16080E-05



 n o d a l   p r i n t   o u t   f o r   t i m e  s t e p   10202                              ( at time 5.0999896E+00 )

 nodal point  x-disp     y-disp      z-disp      x-vel       y-vel       z-vel      x-accl      y-accl      z-accl      x-coor      y-coor      z-coor
    22626 -1.92629E-03 2.27628E-01-4.22709E-01 2.61821E-04 1.03870E-01-9.13899E-02-2.13476E-03 1.11034E-01 1.06666E-02 4.65745E+00-2.79632E+01-4.54044E+01



 n o d a l   p r i n t   o u t   f o r   t i m e  s t e p   10202                              ( at time 5.0999896E+00 )

 nodal point  x-rot      y-rot       z-rot       x-rot vel   y-rot vel   z-rot vel   x-rot acc   y-rot acc   z-rot acc
    22626 -7.20375E-04 6.75357E-06 1.75845E-05-5.18874E-04-2.27670E-06-5.58611E-06-9.39925E-04-1.43586E-05-9.55839E-05



 n o d a l   p r i n t   o u t   f o r   t i m e  s t e p   10402                              ( at time 5.1999796E+00 )

 nodal point  x-disp     y-disp      z-disp      x-vel       y-vel       z-vel      x-accl      y-accl      z-accl      x-coor      y-coor      z-coor
    22626 -1.91574E-03 2.38606E-01-4.31730E-01-4.22031E-05 1.15791E-01-8.92497E-02-3.04053E-03 1.19219E-01 2.14043E-02 4.65746E+00-2.79522E+01-4.54135E+01



 n o d a l   p r i n t   o u t   f o r   t i m e  s t e p   10402                              ( at time 5.1999796E+00 )

 nodal point  x-rot      y-rot       z-rot       x-rot vel   y-rot vel   z-rot vel   x-rot acc   y-rot acc   z-rot acc
    22626 -7.76878E-04 6.50100E-06 1.68076E-05-6.11476E-04 1.35440E-06-4.59530E-06-9.26111E-04 3.63144E-05 9.90904E-06



 n o d a l   p r i n t   o u t   f o r   t i m e  s t e p   10602                              ( at time 5.2999696E+00 )

 nodal point  x-disp     y-disp      z-disp      x-vel       y-vel       z-vel      x-accl      y-accl      z-accl      x-coor      y-coor      z-coor
    22626 -1.92475E-03 2.50821E-01-4.40581E-01 2.12850E-04 1.28864E-01-8.78229E-02 2.55079E-03 1.30740E-01 1.42687E-02 4.65745E+00-2.79400E+01-4.54223E+01



 n o d a l   p r i n t   o u t   f o r   t i m e  s t e p   10602                              ( at time 5.2999696E+00 )

 nodal point  x-rot      y-rot       z-rot       x-rot vel   y-rot vel   z-rot vel   x-rot acc   y-rot acc   z-rot acc
    22626 -8.42906E-04 6.55135E-06 1.62382E-05-7.06677E-04 1.33553E-07-1.05958E-05-9.52104E-04-1.22097E-05-6.00108E-05



 n o d a l   p r i n t   o u t   f o r   t i m e  s t e p   10802                              ( at time 5.3999596E+00 )

 nodal point  x-disp     y-disp      z-disp      x-vel       y-vel       z-vel      x-accl      y-accl      z-accl      x-coor      y-coor      z-coor
    22626 -1.88846E-03 2.64470E-01-4.49334E-01 1.45424E-04 1.44020E-01-8.72044E-02-6.74327E-04 1.51581E-01 6.18558E-03 4.65749E+00-2.79264E+01-4.54311E+01



 n o d a l   p r i n t   o u t   f o r   t i m e  s t e p   10802                              ( at time 5.3999596E+00 )

 nodal point  x-rot      y-rot       z-rot       x-rot vel   y-rot vel   z-rot vel   x-rot acc   y-rot acc   z-rot acc
    22626 -9.19822E-04 6.36198E-06 1.49860E-05-8.21077E-04-1.40813E-06-1.15018E-05-1.14411E-03-1.54184E-05-9.06118E-06



 n o d a l   p r i n t   o u t   f o r   t i m e  s t e p   11002                              ( at time 5.4999496E+00 )

 nodal point  x-disp     y-disp      z-disp      x-vel       y-vel       z-vel      x-accl      y-accl      z-accl      x-coor      y-coor      z-coor
    22626 -1.88756E-03 2.79586E-01-4.58003E-01-2.32363E-04 1.58820E-01-8.65113E-02-3.77826E-03 1.48019E-01 6.93205E-03 4.65749E+00-2.79112E+01-4.54397E+01



 n o d a l   p r i n t   o u t   f o r   t i m e  s t e p   11002                              ( at time 5.4999496E+00 )

 nodal point  x-rot      y-rot       z-rot       x-rot vel   y-rot vel   z-rot vel   x-rot acc   y-rot acc   z-rot acc
    22626 -1.00718E-03 5.93951E-06 1.33877E-05-9.25728E-04-1.21192E-05-2.20067E-05-1.04661E-03-1.07121E-04-1.05060E-04



 n o d a l   p r i n t   o u t   f o r   t i m e  s t e p   11202                              ( at time 5.5999396E+00 )

 nodal point  x-disp     y-disp      z-disp      x-vel       y-vel       z-vel      x-accl      y-accl      z-accl      x-coor      y-coor      z-coor
    22626 -1.91504E-03 2.96291E-01-4.66574E-01-1.50045E-04 1.74851E-01-8.47600E-02 8.23268E-04 1.60319E-01 1.75144E-02 4.65746E+00-2.78945E+01-4.54483E+01



 n o d a l   p r i n t   o u t   f o r   t i m e  s t e p   11202                              ( at time 5.5999396E+00 )

 nodal point  x-rot      y-rot       z-rot       x-rot vel   y-rot vel   z-rot vel   x-rot acc   y-rot acc   z-rot acc
    22626 -1.10615E-03 4.20622E-06 1.02081E-05-1.05197E-03-1.39186E-05-3.45851E-05-1.26258E-03-1.79963E-05-1.25796E-04



 n o d a l   p r i n t   o u t   f o r   t i m e  s t e p   11402                              ( at time 5.6999296E+00 )

 nodal point  x-disp     y-disp      z-disp      x-vel       y-vel       z-vel      x-accl      y-accl      z-accl      x-coor      y-coor      z-coor
    22626 -1.90882E-03 3.14572E-01-4.74892E-01 2.71474E-05 1.91295E-01-8.16661E-02 1.77209E-03 1.64453E-01 3.09426E-02 4.65747E+00-2.78763E+01-4.54566E+01



 n o d a l   p r i n t   o u t   f o r   t i m e  s t e p   11402                              ( at time 5.6999296E+00 )

 nodal point  x-rot      y-rot       z-rot       x-rot vel   y-rot vel   z-rot vel   x-rot acc   y-rot acc   z-rot acc
    22626 -1.21769E-03 3.24773E-06 6.56188E-06-1.17469E-03-1.13605E-05-3.86469E-05-1.22727E-03 2.55839E-05-4.06227E-05



 n o d a l   p r i n t   o u t   f o r   t i m e  s t e p   11602                              ( at time 5.7999195E+00 )

 nodal point  x-disp     y-disp      z-disp      x-vel       y-vel       z-vel      x-accl      y-accl      z-accl      x-coor      y-coor      z-coor
    22626 -1.94099E-03 3.34583E-01-4.82948E-01-5.65263E-04 2.08885E-01-7.95943E-02-5.92470E-03 1.75922E-01 2.07202E-02 4.65743E+00-2.78562E+01-4.54647E+01



 n o d a l   p r i n t   o u t   f o r   t i m e  s t e p   11602                              ( at time 5.7999195E+00 )

 nodal point  x-rot      y-rot       z-rot       x-rot vel   y-rot vel   z-rot vel   x-rot acc   y-rot acc   z-rot acc
    22626 -1.34145E-03 9.59648E-07 1.74883E-06-1.28963E-03-2.69657E-05-5.56494E-05-1.14957E-03-1.56068E-04-1.70042E-04



 n o d a l   p r i n t   o u t   f o r   t i m e  s t e p   11802                              ( at time 5.8999095E+00 )

 nodal point  x-disp     y-disp      z-disp      x-vel       y-vel       z-vel      x-accl      y-accl      z-accl      x-coor      y-coor      z-coor
    22626 -1.97915E-03 3.56412E-01-4.90923E-01-6.42251E-04 2.27828E-01-7.93189E-02-7.69953E-04 1.89450E-01 2.75394E-03 4.65740E+00-2.78344E+01-4.54726E+01



 n o d a l   p r i n t   o u t   f o r   t i m e  s t e p   11802                              ( at time 5.8999095E+00 )

 nodal point  x-rot      y-rot       z-rot       x-rot vel   y-rot vel   z-rot vel   x-rot acc   y-rot acc   z-rot acc
    22626 -1.47802E-03-1.53922E-06-3.75732E-06-1.42733E-03-2.27337E-05-6.04365E-05-1.37708E-03 4.23240E-05-4.78750E-05



 n o d a l   p r i n t   o u t   f o r   t i m e  s t e p   12002                              ( at time 5.9998995E+00 )

 nodal point  x-disp     y-disp      z-disp      x-vel       y-vel       z-vel      x-accl      y-accl      z-accl      x-coor      y-coor      z-coor
    22626 -2.06267E-03 3.80129E-01-4.98832E-01-1.22695E-03 2.46931E-01-7.80270E-02-5.84761E-03 1.91050E-01 1.29209E-02 4.65731E+00-2.78107E+01-4.54806E+01



 n o d a l   p r i n t   o u t   f o r   t i m e  s t e p   12002                              ( at time 5.9998995E+00 )

 nodal point  x-rot      y-rot       z-rot       x-rot vel   y-rot vel   z-rot vel   x-rot acc   y-rot acc   z-rot acc
    22626 -1.62876E-03-4.41489E-06-1.08037E-05-1.57550E-03-3.58227E-05-8.08053E-05-1.48186E-03-1.30902E-04-2.03709E-04



 n o d a l   p r i n t   o u t   f o r   t i m e  s t e p   12202                              ( at time 6.0998895E+00 )

 nodal point  x-disp     y-disp      z-disp      x-vel       y-vel       z-vel      x-accl      y-accl      z-accl      x-coor      y-coor      z-coor
    22626 -2.18744E-03 4.05847E-01-5.06519E-01-9.34498E-04 2.67255E-01-7.57793E-02 2.92482E-03 2.03262E-01 2.24789E-02 4.65719E+00-2.77850E+01-4.54882E+01



 n o d a l   p r i n t   o u t   f o r   t i m e  s t e p   12202                              ( at time 6.0998895E+00 )

 nodal point  x-rot      y-rot       z-rot       x-rot vel   y-rot vel   z-rot vel   x-rot acc   y-rot acc   z-rot acc
    22626 -1.79378E-03-7.87167E-06-1.84795E-05-1.72549E-03-3.20119E-05-7.20897E-05-1.50007E-03 3.81110E-05 8.71645E-05



 n o d a l   p r i n t   o u t   f o r   t i m e  s t e p   12402                              ( at time 6.1998795E+00 )

 nodal point  x-disp     y-disp      z-disp      x-vel       y-vel       z-vel      x-accl      y-accl      z-accl      x-coor      y-coor      z-coor
    22626 -2.27173E-03 4.33637E-01-5.14088E-01-8.61673E-04 2.88892E-01-7.57254E-02 7.28324E-04 2.16387E-01 5.38806E-04 4.65710E+00-2.77572E+01-4.54958E+01



 n o d a l   p r i n t   o u t   f o r   t i m e  s t e p   12402                              ( at time 6.1998795E+00 )

 nodal point  x-rot      y-rot       z-rot       x-rot vel   y-rot vel   z-rot vel   x-rot acc   y-rot acc   z-rot acc
    22626 -1.97368E-03-1.05432E-05-2.56843E-05-1.87869E-03-3.35433E-05-7.55140E-05-1.53217E-03-1.53156E-05-3.42467E-05



 n o d a l   p r i n t   o u t   f o r   t i m e  s t e p   12602                              ( at time 6.2998695E+00 )

 nodal point  x-disp     y-disp      z-disp      x-vel       y-vel       z-vel      x-accl      y-accl      z-accl      x-coor      y-coor      z-coor
    22626 -2.40773E-03 4.63633E-01-5.21601E-01-1.77196E-03 3.11023E-01-7.44775E-02-9.10375E-03 2.21331E-01 1.24807E-02 4.65697E+00-2.77272E+01-4.55033E+01



 n o d a l   p r i n t   o u t   f o r   t i m e  s t e p   12602                              ( at time 6.2998695E+00 )

 nodal point  x-rot      y-rot       z-rot       x-rot vel   y-rot vel   z-rot vel   x-rot acc   y-rot acc   z-rot acc
    22626 -2.16893E-03-1.42219E-05-3.42426E-05-2.02808E-03-4.07498E-05-9.30429E-05-1.49406E-03-7.20718E-05-1.75306E-04



 n o d a l   p r i n t   o u t   f o r   t i m e  s t e p   12802                              ( at time 6.3998595E+00 )

 nodal point  x-disp     y-disp      z-disp      x-vel       y-vel       z-vel      x-accl      y-accl      z-accl      x-coor      y-coor      z-coor
    22626 -2.60443E-03 4.95847E-01-5.29004E-01-1.61335E-03 3.33371E-01-7.32220E-02 1.58618E-03 2.23504E-01 1.25553E-02 4.65677E+00-2.76950E+01-4.55107E+01



 n o d a l   p r i n t   o u t   f o r   t i m e  s t e p   12802                              ( at time 6.3998595E+00 )

 nodal point  x-rot      y-rot       z-rot       x-rot vel   y-rot vel   z-rot vel   x-rot acc   y-rot acc   z-rot acc
    22626 -2.37976E-03-1.83097E-05-4.41316E-05-2.18316E-03-3.90003E-05-9.63998E-05-1.55092E-03 1.74961E-05-3.35729E-05



 n o d a l   p r i n t   o u t   f o r   t i m e  s t e p   13002                              ( at time 6.4998495E+00 )

 nodal point  x-disp     y-disp      z-disp      x-vel       y-vel       z-vel      x-accl      y-accl      z-accl      x-coor      y-coor      z-coor
    22626 -2.74607E-03 5.30304E-01-5.36209E-01-1.11164E-03 3.55968E-01-7.06577E-02 5.01764E-03 2.25997E-01 2.56459E-02 4.65663E+00-2.76605E+01-4.55179E+01



 n o d a l   p r i n t   o u t   f o r   t i m e  s t e p   13002                              ( at time 6.4998495E+00 )

 nodal point  x-rot      y-rot       z-rot       x-rot vel   y-rot vel   z-rot vel   x-rot acc   y-rot acc   z-rot acc
    22626 -2.60684E-03-2.18753E-05-5.31144E-05-2.35692E-03-3.10233E-05-8.46976E-05-1.73778E-03 7.97789E-05 1.17034E-04



 n o d a l   p r i n t   o u t   f o r   t i m e  s t e p   13202                              ( at time 6.5998395E+00 )

 nodal point  x-disp     y-disp      z-disp      x-vel       y-vel       z-vel      x-accl      y-accl      z-accl      x-coor      y-coor      z-coor
    22626 -2.84427E-03 5.67066E-01-5.43176E-01-1.28583E-03 3.79258E-01-6.88295E-02-1.74208E-03 2.32923E-01 1.82840E-02 4.65653E+00-2.76238E+01-4.55249E+01



 n o d a l   p r i n t   o u t   f o r   t i m e  s t e p   13202                              ( at time 6.5998395E+00 )

 nodal point  x-rot      y-rot       z-rot       x-rot vel   y-rot vel   z-rot vel   x-rot acc   y-rot acc   z-rot acc
    22626 -2.85067E-03-2.53039E-05-6.23427E-05-2.52482E-03-4.46913E-05-1.06896E-04-1.67917E-03-1.36693E-04-2.22010E-04



 n o d a l   p r i n t   o u t   f o r   t i m e  s t e p   13402                              ( at time 6.6998295E+00 )

 nodal point  x-disp     y-disp      z-disp      x-vel       y-vel       z-vel      x-accl      y-accl      z-accl      x-coor      y-coor      z-coor
    22626 -3.04188E-03 6.06189E-01-5.49907E-01-2.16480E-03 4.02983E-01-6.61291E-02-8.79056E-03 2.37268E-01 2.70065E-02 4.65633E+00-2.75846E+01-4.55316E+01



 n o d a l   p r i n t   o u t   f o r   t i m e  s t e p   13402                              ( at time 6.6998295E+00 )

 nodal point  x-rot      y-rot       z-rot       x-rot vel   y-rot vel   z-rot vel   x-rot acc   y-rot acc   z-rot acc
    22626 -3.11060E-03-3.00761E-05-7.36352E-05-2.68392E-03-4.32616E-05-1.12911E-04-1.59118E-03 1.42978E-05-6.01555E-05



 n o d a l   p r i n t   o u t   f o r   t i m e  s t e p   13602                              ( at time 6.7998195E+00 )

 nodal point  x-disp     y-disp      z-disp      x-vel       y-vel       z-vel      x-accl      y-accl      z-accl      x-coor      y-coor      z-coor
    22626 -3.22282E-03 6.47728E-01-5.56419E-01-1.33641E-03 4.27385E-01-6.44548E-02 8.28471E-03 2.44043E-01 1.67452E-02 4.65615E+00-2.75431E+01-4.55381E+01



 n o d a l   p r i n t   o u t   f o r   t i m e  s t e p   13602                              ( at time 6.7998195E+00 )

 nodal point  x-rot      y-rot       z-rot       x-rot vel   y-rot vel   z-rot vel   x-rot acc   y-rot acc   z-rot acc
    22626 -3.38766E-03-3.36535E-05-8.40573E-05-2.86327E-03-3.31479E-05-9.79394E-05-1.79366E-03 1.01147E-04 1.49735E-04



 n o d a l   p r i n t   o u t   f o r   t i m e  s t e p   13802                              ( at time 6.8998095E+00 )

 nodal point  x-disp     y-disp      z-disp      x-vel       y-vel       z-vel      x-accl      y-accl      z-accl      x-coor      y-coor      z-coor
    22626 -3.34860E-03 6.91652E-01-5.62735E-01-1.48982E-03 4.51573E-01-6.12011E-02-1.53424E-03 2.41913E-01 3.25395E-02 4.65603E+00-2.74992E+01-4.55445E+01



 n o d a l   p r i n t   o u t   f o r   t i m e  s t e p   13802                              ( at time 6.8998095E+00 )

 nodal point  x-rot      y-rot       z-rot       x-rot vel   y-rot vel   z-rot vel   x-rot acc   y-rot acc   z-rot acc
    22626 -3.68312E-03-3.75870E-05-9.49042E-05-3.03852E-03-4.35140E-05-1.11852E-04-1.75268E-03-1.03672E-04-1.39143E-04



 n o d a l   p r i n t   o u t   f o r   t i m e  s t e p   14002                              ( at time 6.9997995E+00 )

 nodal point  x-disp     y-disp      z-disp      x-vel       y-vel       z-vel      x-accl      y-accl      z-accl      x-coor      y-coor      z-coor
    22626 -3.52617E-03 7.38088E-01-5.68678E-01-1.96428E-03 4.76831E-01-5.77537E-02-4.74506E-03 2.52606E-01 3.44777E-02 4.65585E+00-2.74527E+01-4.55504E+01



 n o d a l   p r i n t   o u t   f o r   t i m e  s t e p   14002                              ( at time 6.9997995E+00 )

 nodal point  x-rot      y-rot       z-rot       x-rot vel   y-rot vel   z-rot vel   x-rot acc   y-rot acc   z-rot acc
    22626 -3.99587E-03-4.15367E-05-1.05970E-04-3.21081E-03-3.60362E-05-1.16993E-04-1.72310E-03 7.47863E-05-5.14074E-05



 n o d a l   p r i n t   o u t   f o r   t i m e  s t e p   14202                              ( at time 7.0997895E+00 )

 nodal point  x-disp     y-disp      z-disp      x-vel       y-vel       z-vel      x-accl      y-accl      z-accl      x-coor      y-coor      z-coor
    22626 -3.74669E-03 7.87015E-01-5.74308E-01-2.26523E-03 5.01727E-01-5.48548E-02-3.00983E-03 2.48978E-01 2.89916E-02 4.65563E+00-2.74038E+01-4.55560E+01



 n o d a l   p r i n t   o u t   f o r   t i m e  s t e p   14202                              ( at time 7.0997895E+00 )

 nodal point  x-rot      y-rot       z-rot       x-rot vel   y-rot vel   z-rot vel   x-rot acc   y-rot acc   z-rot acc
    22626 -4.32624E-03-4.48403E-05-1.17693E-04-3.40121E-03-3.35429E-05-1.18347E-04-1.90419E-03 2.49352E-05-1.35484E-05



 n o d a l   p r i n t   o u t   f o r   t i m e  s t e p   14402                              ( at time 7.1997794E+00 )

 nodal point  x-disp     y-disp      z-disp      x-vel       y-vel       z-vel      x-accl      y-accl      z-accl      x-coor      y-coor      z-coor
    22626 -3.88078E-03 8.38509E-01-5.79592E-01-1.13614E-03 5.27660E-01-5.11441E-02 1.12920E-02 2.59357E-01 3.71108E-02 4.65549E+00-2.73523E+01-4.55613E+01



 n o d a l   p r i n t   o u t   f o r   t i m e  s t e p   14402                              ( at time 7.1997794E+00 )

 nodal point  x-rot      y-rot       z-rot       x-rot vel   y-rot vel   z-rot vel   x-rot acc   y-rot acc   z-rot acc
    22626 -4.67521E-03-4.75556E-05-1.28496E-04-3.58340E-03-2.23076E-05-9.90168E-05-1.82206E-03 1.12365E-04 1.93324E-04



 n o d a l   p r i n t   o u t   f o r   t i m e  s t e p   14602                              ( at time 7.2997694E+00 )

 nodal point  x-disp     y-disp      z-disp      x-vel       y-vel       z-vel      x-accl      y-accl      z-accl      x-coor      y-coor      z-coor
    22626 -4.03319E-03 8.92540E-01-5.84413E-01-1.62570E-03 5.52685E-01-4.53580E-02-4.89605E-03 2.50281E-01 5.78669E-02 4.65534E+00-2.72983E+01-4.55661E+01



 n o d a l   p r i n t   o u t   f o r   t i m e  s t e p   14602                              ( at time 7.2997694E+00 )

 nodal point  x-rot      y-rot       z-rot       x-rot vel   y-rot vel   z-rot vel   x-rot acc   y-rot acc   z-rot acc
    22626 -5.04259E-03-5.05618E-05-1.39414E-04-3.77263E-03-3.19794E-05-1.24819E-04-1.89251E-03-9.67281E-05-2.58049E-04



 n o d a l   p r i n t   o u t   f o r   t i m e  s t e p   14802                              ( at time 7.3997594E+00 )

 nodal point  x-disp     y-disp      z-disp      x-vel       y-vel       z-vel      x-accl      y-accl      z-accl      x-coor      y-coor      z-coor
    22626 -4.22222E-03 9.49074E-01-5.88629E-01-2.09095E-03 5.77789E-01-3.91128E-02-4.65298E-03 2.51056E-01 6.24586E-02 4.65515E+00-2.72418E+01-4.55703E+01



 n o d a l   p r i n t   o u t   f o r   t i m e  s t e p   14802                              ( at time 7.3997594E+00 )

 nodal point  x-rot      y-rot       z-rot       x-rot vel   y-rot vel   z-rot vel   x-rot acc   y-rot acc   z-rot acc
    22626 -5.42930E-03-5.37426E-05-1.51930E-04-3.96407E-03-2.42881E-05-1.16015E-04-1.91460E-03 7.69202E-05 8.80531E-05



 n o d a l   p r i n t   o u t   f o r   t i m e  s t e p   15002                              ( at time 7.4997494E+00 )

 nodal point  x-disp     y-disp      z-disp      x-vel       y-vel       z-vel      x-accl      y-accl      z-accl      x-coor      y-coor      z-coor
    22626 -4.34032E-03 1.00813E+00-5.92208E-01-4.87705E-04 6.03232E-01-3.28795E-02 1.60340E-02 2.54462E-01 6.23391E-02 4.65503E+00-2.71827E+01-4.55739E+01



 n o d a l   p r i n t   o u t   f o r   t i m e  s t e p   15002                              ( at time 7.4997494E+00 )

 nodal point  x-rot      y-rot       z-rot       x-rot vel   y-rot vel   z-rot vel   x-rot acc   y-rot acc   z-rot acc
    22626 -5.83458E-03-5.53904E-05-1.63246E-04-4.14952E-03-1.55468E-05-1.16982E-04-1.85460E-03 8.74223E-05-9.67745E-06



 n o d a l   p r i n t   o u t   f o r   t i m e  s t e p   15202                              ( at time 7.5997394E+00 )

 nodal point  x-disp     y-disp      z-disp      x-vel       y-vel       z-vel      x-accl      y-accl      z-accl      x-coor      y-coor      z-coor
    22626 -4.39351E-03 1.06975E+00-5.95180E-01-9.51082E-04 6.28758E-01-2.65200E-02-4.63424E-03 2.55284E-01 6.36019E-02 4.65498E+00-2.71211E+01-4.55769E+01



 n o d a l   p r i n t   o u t   f o r   t i m e  s t e p   15202                              ( at time 7.5997394E+00 )

 nodal point  x-rot      y-rot       z-rot       x-rot vel   y-rot vel   z-rot vel   x-rot acc   y-rot acc   z-rot acc
    22626 -6.25882E-03-5.80810E-05-1.75713E-04-4.34518E-03-3.26395E-05-1.27329E-04-1.95681E-03-1.70944E-04-1.03474E-04



 n o d a l   p r i n t   o u t   f o r   t i m e  s t e p   15402                              ( at time 7.6997294E+00 )

 nodal point  x-disp     y-disp      z-disp      x-vel       y-vel       z-vel      x-accl      y-accl      z-accl      x-coor      y-coor      z-coor
    22626 -4.54711E-03 1.13389E+00-5.97442E-01-1.34385E-03 6.54556E-01-1.90989E-02-3.92807E-03 2.58004E-01 7.42175E-02 4.65483E+00-2.70569E+01-4.55792E+01



 n o d a l   p r i n t   o u t   f o r   t i m e  s t e p   15402                              ( at time 7.6997294E+00 )

 nodal point  x-rot      y-rot       z-rot       x-rot vel   y-rot vel   z-rot vel   x-rot acc   y-rot acc   z-rot acc
    22626 -6.70284E-03-6.09395E-05-1.88655E-04-4.54054E-03-2.19767E-05-1.29996E-04-1.95386E-03 1.06639E-04-2.66705E-05



 n o d a l   p r i n t   o u t   f o r   t i m e  s t e p   15602                              ( at time 7.7997194E+00 )

 nodal point  x-disp     y-disp      z-disp      x-vel       y-vel       z-vel      x-accl      y-accl      z-accl      x-coor      y-coor      z-coor
    22626 -4.59721E-03 1.20061E+00-5.99003E-01-1.33712E-04 6.80234E-01-1.14383E-02 1.21026E-02 2.56808E-01 7.66141E-02 4.65478E+00-2.69902E+01-4.55807E+01



 n o d a l   p r i n t   o u t   f o r   t i m e  s t e p   15602                              ( at time 7.7997194E+00 )

 nodal point  x-rot      y-rot       z-rot       x-rot vel   y-rot vel   z-rot vel   x-rot acc   y-rot acc   z-rot acc
    22626 -7.16699E-03-6.28959E-05-2.01833E-04-4.73523E-03-1.59178E-05-1.24348E-04-1.94708E-03 6.05943E-05 5.64817E-05



 n o d a l   p r i n t   o u t   f o r   t i m e  s t e p   15802                              ( at time 7.8997094E+00 )

 nodal point  x-disp     y-disp      z-disp      x-vel       y-vel       z-vel      x-accl      y-accl      z-accl      x-coor      y-coor      z-coor
    22626 -4.61300E-03 1.26993E+00-5.99715E-01 6.90622E-06 7.06298E-01-2.72556E-03 1.40632E-03 2.60669E-01 8.71363E-02 4.65476E+00-2.69209E+01-4.55814E+01



 n o d a l   p r i n t   o u t   f o r   t i m e  s t e p   15802                              ( at time 7.8997094E+00 )

 nodal point  x-rot      y-rot       z-rot       x-rot vel   y-rot vel   z-rot vel   x-rot acc   y-rot acc   z-rot acc
    22626 -7.65064E-03-6.43952E-05-2.14263E-04-4.92935E-03-2.22730E-05-1.31060E-04-1.94138E-03-6.35577E-05-6.71311E-05



 n o d a l   p r i n t   o u t   f o r   t i m e  s t e p   16002                              ( at time 7.9996994E+00 )

 nodal point  x-disp     y-disp      z-disp      x-vel       y-vel       z-vel      x-accl      y-accl      z-accl      x-coor      y-coor      z-coor
    22626 -4.63005E-03 1.34183E+00-5.99614E-01-6.98195E-04 7.31785E-01 5.06083E-03-7.05170E-03 2.54886E-01 7.78714E-02 4.65475E+00-2.68490E+01-4.55813E+01



 n o d a l   p r i n t   o u t   f o r   t i m e  s t e p   16002                              ( at time 7.9996994E+00 )

 nodal point  x-rot      y-rot       z-rot       x-rot vel   y-rot vel   z-rot vel   x-rot acc   y-rot acc   z-rot acc
    22626 -8.15331E-03-6.70191E-05-2.27923E-04-5.12725E-03-2.69771E-05-1.37699E-04-1.97918E-03-4.70462E-05-6.63970E-05



 n o d a l   p r i n t   o u t   f o r   t i m e  s t e p   16202                              ( at time 8.0996894E+00 )

 nodal point  x-disp     y-disp      z-disp      x-vel       y-vel       z-vel      x-accl      y-accl      z-accl      x-coor      y-coor      z-coor
    22626 -4.66704E-03 1.41629E+00-5.98624E-01 3.26507E-04 7.57298E-01 1.52128E-02 1.02481E-02 2.55157E-01 1.01530E-01 4.65471E+00-2.67745E+01-4.55803E+01



 n o d a l   p r i n t   o u t   f o r   t i m e  s t e p   16202                              ( at time 8.0996894E+00 )

 nodal point  x-rot      y-rot       z-rot       x-rot vel   y-rot vel   z-rot vel   x-rot acc   y-rot acc   z-rot acc
    22626 -8.67675E-03-6.86244E-05-2.41306E-04-5.34278E-03-6.02543E-06-1.26059E-04-2.15552E-03 2.09538E-04 1.16415E-04



 n o d a l   p r i n t   o u t   f o r   t i m e  s t e p   16402                              ( at time 8.1996794E+00 )

 nodal point  x-disp     y-disp      z-disp      x-vel       y-vel       z-vel      x-accl      y-accl      z-accl      x-coor      y-coor      z-coor
    22626 -4.62278E-03 1.49326E+00-5.96550E-01 4.97252E-04 7.82347E-01 2.62335E-02 1.70763E-03 2.50523E-01 1.10218E-01 4.65475E+00-2.66976E+01-4.55783E+01



 n o d a l   p r i n t   o u t   f o r   t i m e  s t e p   16402                              ( at time 8.1996794E+00 )

 nodal point  x-rot      y-rot       z-rot       x-rot vel   y-rot vel   z-rot vel   x-rot acc   y-rot acc   z-rot acc
    22626 -9.22086E-03-6.98853E-05-2.54814E-04-5.54102E-03-1.82311E-05-1.44147E-04-1.98261E-03-1.22069E-04-1.80901E-04



 n o d a l   p r i n t   o u t   f o r   t i m e  s t e p   16602                              ( at time 8.2996694E+00 )

 nodal point  x-disp     y-disp      z-disp      x-vel       y-vel       z-vel      x-accl      y-accl      z-accl      x-coor      y-coor      z-coor
    22626 -4.58864E-03 1.57274E+00-5.93368E-01 2.10032E-04 8.07394E-01 3.76860E-02-2.87250E-03 2.50487E-01 1.14536E-01 4.65479E+00-2.66181E+01-4.55751E+01



 n o d a l   p r i n t   o u t   f o r   t i m e  s t e p   16602                              ( at time 8.2996694E+00 )

 nodal point  x-rot      y-rot       z-rot       x-rot vel   y-rot vel   z-rot vel   x-rot acc   y-rot acc   z-rot acc
    22626 -9.78504E-03-7.20161E-05-2.69246E-04-5.74413E-03-2.81085E-05-1.46564E-04-2.03128E-03-9.87845E-05-2.41717E-05



 n o d a l   p r i n t   o u t   f o r   t i m e  s t e p   16802                              ( at time 8.3996594E+00 )

 nodal point  x-disp     y-disp      z-disp      x-vel       y-vel       z-vel      x-accl      y-accl      z-accl      x-coor      y-coor      z-coor
    22626 -4.51740E-03 1.65472E+00-5.88980E-01 8.73662E-04 8.32741E-01 5.03770E-02 6.63697E-03 2.53499E-01 1.26924E-01 4.65486E+00-2.65361E+01-4.55707E+01



 n o d a l   p r i n t   o u t   f o r   t i m e  s t e p   16802                              ( at time 8.3996594E+00 )

 nodal point  x-rot      y-rot       z-rot       x-rot vel   y-rot vel   z-rot vel   x-rot acc   y-rot acc   z-rot acc
    22626 -1.03694E-02-7.44127E-05-2.84281E-04-5.94216E-03-2.12044E-05-1.60495E-04-1.98056E-03 6.90480E-05-1.39319E-04



 n o d a l   p r i n t   o u t   f o r   t i m e  s t e p   17002                              ( at time 8.4996494E+00 )

 nodal point  x-disp     y-disp      z-disp      x-vel       y-vel       z-vel      x-accl      y-accl      z-accl      x-coor      y-coor      z-coor
    22626 -4.41233E-03 1.73915E+00-5.83314E-01 1.30508E-03 8.56325E-01 6.36871E-02 4.31461E-03 2.35865E-01 1.33114E-01 4.65496E+00-2.64517E+01-4.55650E+01



 n o d a l   p r i n t   o u t   f o r   t i m e  s t e p   17002                              ( at time 8.4996494E+00 )

 nodal point  x-rot      y-rot       z-rot       x-rot vel   y-rot vel   z-rot vel   x-rot acc   y-rot acc   z-rot acc
    22626 -1.09747E-02-7.61066E-05-2.99974E-04-6.15707E-03-8.76671E-06-1.59342E-04-2.14924E-03 1.24390E-04 1.15273E-05



 n o d a l   p r i n t   o u t   f o r   t i m e  s t e p   17202                              ( at time 8.5996394E+00 )

 nodal point  x-disp     y-disp      z-disp      x-vel       y-vel       z-vel      x-accl      y-accl      z-accl      x-coor      y-coor      z-coor
    22626 -4.30413E-03 1.82600E+00-5.76325E-01 8.78855E-04 8.81151E-01 7.67625E-02-4.26266E-03 2.48283E-01 1.30767E-01 4.65507E+00-2.63648E+01-4.55580E+01



 n o d a l   p r i n t   o u t   f o r   t i m e  s t e p   17202                              ( at time 8.5996394E+00 )

 nodal point  x-rot      y-rot       z-rot       x-rot vel   y-rot vel   z-rot vel   x-rot acc   y-rot acc   z-rot acc
    22626 -1.16014E-02-7.75462E-05-3.15681E-04-6.36450E-03-1.60947E-05-1.62370E-04-2.07458E-03-7.32876E-05-3.02850E-05



 n o d a l   p r i n t   o u t   f o r   t i m e  s t e p   17402                              ( at time 8.6996293E+00 )

 nodal point  x-disp     y-disp      z-disp      x-vel       y-vel       z-vel      x-accl      y-accl      z-accl      x-coor      y-coor      z-coor
    22626 -4.17448E-03 1.91522E+00-5.67914E-01 1.31751E-03 9.04131E-01 9.19735E-02 4.38690E-03 2.29828E-01 1.52124E-01 4.65520E+00-2.62756E+01-4.55496E+01



 n o d a l   p r i n t   o u t   f o r   t i m e  s t e p   17402                              ( at time 8.6996293E+00 )

 nodal point  x-rot      y-rot       z-rot       x-rot vel   y-rot vel   z-rot vel   x-rot acc   y-rot acc   z-rot acc
    22626 -1.22474E-02-7.90528E-05-3.31971E-04-6.55603E-03-1.24000E-05-1.61535E-04-1.91538E-03 3.69510E-05 8.35866E-06



 n o d a l   p r i n t   o u t   f o r   t i m e  s t e p   17602                              ( at time 8.7996193E+00 )

 nodal point  x-disp     y-disp      z-disp      x-vel       y-vel       z-vel      x-accl      y-accl      z-accl      x-coor      y-coor      z-coor
    22626 -3.99668E-03 2.00682E+00-5.57987E-01 2.34342E-03 9.27893E-01 1.06927E-01 1.02602E-02 2.37639E-01 1.49553E-01 4.65538E+00-2.61840E+01-4.55397E+01



 n o d a l   p r i n t   o u t   f o r   t i m e  s t e p   17602                              ( at time 8.7996193E+00 )

 nodal point  x-rot      y-rot       z-rot       x-rot vel   y-rot vel   z-rot vel   x-rot acc   y-rot acc   z-rot acc
    22626 -1.29129E-02-7.99002E-05-3.48123E-04-6.74611E-03-7.61488E-06-1.62728E-04-1.90107E-03 4.78558E-05-1.19338E-05



 n o d a l   p r i n t   o u t   f o r   t i m e  s t e p   17802                              ( at time 8.8996093E+00 )

 nodal point  x-disp     y-disp      z-disp      x-vel       y-vel       z-vel      x-accl      y-accl      z-accl      x-coor      y-coor      z-coor
    22626 -3.70850E-03 2.10078E+00-5.46548E-01 3.35757E-03 9.51300E-01 1.22108E-01 1.01425E-02 2.34091E-01 1.51825E-01 4.65567E+00-2.60900E+01-4.55283E+01



 n o d a l   p r i n t   o u t   f o r   t i m e  s t e p   17802                              ( at time 8.8996093E+00 )

 nodal point  x-rot      y-rot       z-rot       x-rot vel   y-rot vel   z-rot vel   x-rot acc   y-rot acc   z-rot acc
    22626 -1.35967E-02-8.04742E-05-3.63906E-04-6.92720E-03-4.86443E-06-1.49053E-04-1.81107E-03 2.75072E-05 1.36759E-04



 n o d a l   p r i n t   o u t   f o r   t i m e  s t e p   18002                              ( at time 8.9995993E+00 )

 nodal point  x-disp     y-disp      z-disp      x-vel       y-vel       z-vel      x-accl      y-accl      z-accl      x-coor      y-coor      z-coor
    22626 -3.33604E-03 2.19706E+00-5.33534E-01 4.11350E-03 9.73828E-01 1.38406E-01 7.56004E-03 2.25302E-01 1.62994E-01 4.65604E+00-2.59938E+01-4.55153E+01



 n o d a l   p r i n t   o u t   f o r   t i m e  s t e p   18002                              ( at time 8.9995993E+00 )

 nodal point  x-rot      y-rot       z-rot       x-rot vel   y-rot vel   z-rot vel   x-rot acc   y-rot acc   z-rot acc
    22626 -1.42985E-02-8.10752E-05-3.78905E-04-7.10671E-03-3.70216E-06-1.45016E-04-1.79529E-03 1.16238E-05 4.03765E-05



 n o d a l   p r i n t   o u t   f o r   t i m e  s t e p   18202                              ( at time 9.0995893E+00 )

 nodal point  x-disp     y-disp      z-disp      x-vel       y-vel       z-vel      x-accl      y-accl      z-accl      x-coor      y-coor      z-coor
    22626 -2.91730E-03 2.29557E+00-5.18852E-01 4.45472E-03 9.96455E-01 1.55111E-01 3.41259E-03 2.26299E-01 1.67063E-01 4.65646E+00-2.58953E+01-4.55006E+01



 n o d a l   p r i n t   o u t   f o r   t i m e  s t e p   18202                              ( at time 9.0995893E+00 )

 nodal point  x-rot      y-rot       z-rot       x-rot vel   y-rot vel   z-rot vel   x-rot acc   y-rot acc   z-rot acc
    22626 -1.50175E-02-8.10239E-05-3.93455E-04-7.27447E-03 6.26091E-06-1.31098E-04-1.67778E-03 9.96408E-05 1.39197E-04



 n o d a l   p r i n t   o u t   f o r   t i m e  s t e p   18402                              ( at time 9.1995793E+00 )

 nodal point  x-disp     y-disp      z-disp      x-vel       y-vel       z-vel      x-accl      y-accl      z-accl      x-coor      y-coor      z-coor
    22626 -2.40654E-03 2.39630E+00-5.02514E-01 5.98278E-03 1.01810E+00 1.71322E-01 1.52821E-02 2.16431E-01 1.62133E-01 4.65697E+00-2.57945E+01-4.54842E+01



 n o d a l   p r i n t   o u t   f o r   t i m e  s t e p   18402                              ( at time 9.1995793E+00 )

 nodal point  x-rot      y-rot       z-rot       x-rot vel   y-rot vel   z-rot vel   x-rot acc   y-rot acc   z-rot acc
    22626 -1.57519E-02-8.00602E-05-4.06622E-04-7.42274E-03 1.03014E-05-1.25380E-04-1.48287E-03 4.04086E-05 5.71800E-05



 n o d a l   p r i n t   o u t   f o r   t i m e  s t e p   18602                              ( at time 9.2995693E+00 )

 nodal point  x-disp     y-disp      z-disp      x-vel       y-vel       z-vel      x-accl      y-accl      z-accl      x-coor      y-coor      z-coor
    22626 -1.74633E-03 2.49920E+00-4.84480E-01 7.29960E-03 1.04015E+00 1.89588E-01 1.31695E-02 2.20606E-01 1.82671E-01 4.65763E+00-2.56916E+01-4.54662E+01



 n o d a l   p r i n t   o u t   f o r   t i m e  s t e p   18602                              ( at time 9.2995693E+00 )

 nodal point  x-rot      y-rot       z-rot       x-rot vel   y-rot vel   z-rot vel   x-rot acc   y-rot acc   z-rot acc
    22626 -1.65014E-02-7.82899E-05-4.19428E-04-7.56984E-03 2.33916E-05-1.20418E-04-1.47111E-03 1.30916E-04 4.96282E-05



 n o d a l   p r i n t   o u t   f o r   t i m e  s t e p   18802                              ( at time 9.3995593E+00 )

 nodal point  x-disp     y-disp      z-disp      x-vel       y-vel       z-vel      x-accl      y-accl      z-accl      x-coor      y-coor      z-coor
    22626 -1.01222E-03 2.60420E+00-4.64592E-01 7.92997E-03 1.06043E+00 2.07989E-01 6.30432E-03 2.02750E-01 1.84029E-01 4.65836E+00-2.55866E+01-4.54463E+01



 n o d a l   p r i n t   o u t   f o r   t i m e  s t e p   18802                              ( at time 9.3995593E+00 )

 nodal point  x-rot      y-rot       z-rot       x-rot vel   y-rot vel   z-rot vel   x-rot acc   y-rot acc   z-rot acc
    22626 -1.72657E-02-7.60236E-05-4.30854E-04-7.71583E-03 2.18759E-05-1.04160E-04-1.46002E-03-1.51590E-05 1.62600E-04



 n o d a l   p r i n t   o u t   f o r   t i m e  s t e p   19002                              ( at time 9.4995493E+00 )

 nodal point  x-disp     y-disp      z-disp      x-vel       y-vel       z-vel      x-accl      y-accl      z-accl      x-coor      y-coor      z-coor
    22626 -1.03344E-04 2.71128E+00-4.42853E-01 1.02368E-02 1.08111E+00 2.27523E-01 2.30707E-02 2.06839E-01 1.95368E-01 4.65927E+00-2.54796E+01-4.54246E+01



 n o d a l   p r i n t   o u t   f o r   t i m e  s t e p   19002                              ( at time 9.4995493E+00 )

 nodal point  x-rot      y-rot       z-rot       x-rot vel   y-rot vel   z-rot vel   x-rot acc   y-rot acc   z-rot acc
    22626 -1.80443E-02-7.33135E-05-4.40762E-04-7.85203E-03 4.31746E-05-8.80939E-05-1.36216E-03 2.13009E-04 1.60675E-04



 n o d a l   p r i n t   o u t   f o r   t i m e  s t e p   19202                              ( at time 9.5995393E+00 )

 nodal point  x-disp     y-disp      z-disp      x-vel       y-vel       z-vel      x-accl      y-accl      z-accl      x-coor      y-coor      z-coor
    22626  9.92489E-04 2.82031E+00-4.19096E-01 1.20910E-02 1.09994E+00 2.47658E-01 1.85434E-02 1.88330E-01 2.01362E-01 4.66037E+00-2.53705E+01-4.54008E+01



 n o d a l   p r i n t   o u t   f o r   t i m e  s t e p   19202                              ( at time 9.5995393E+00 )

 nodal point  x-rot      y-rot       z-rot       x-rot vel   y-rot vel   z-rot vel   x-rot acc   y-rot acc   z-rot acc
    22626 -1.88363E-02-6.77923E-05-4.48056E-04-7.98384E-03 6.62684E-05-6.34119E-05-1.31817E-03 2.30959E-04 2.46842E-04



 n o d a l   p r i n t   o u t   f o r   t i m e  s t e p   19402                              ( at time 9.6995293E+00 )

 nodal point  x-disp     y-disp      z-disp      x-vel       y-vel       z-vel      x-accl      y-accl      z-accl      x-coor      y-coor      z-coor
    22626  2.30827E-03 2.93127E+00-3.93276E-01 1.35614E-02 1.11871E+00 2.68673E-01 1.47059E-02 1.87702E-01 2.10178E-01 4.66168E+00-2.52596E+01-4.53750E+01



 n o d a l   p r i n t   o u t   f o r   t i m e  s t e p   19402                              ( at time 9.6995293E+00 )

 nodal point  x-rot      y-rot       z-rot       x-rot vel   y-rot vel   z-rot vel   x-rot acc   y-rot acc   z-rot acc
    22626 -1.96410E-02-6.11403E-05-4.52677E-04-8.11422E-03 6.51225E-05-3.73883E-05-1.30401E-03-1.14609E-05 2.60262E-04



 n o d a l   p r i n t   o u t   f o r   t i m e  s t e p   19602                              ( at time 9.7995193E+00 )

 nodal point  x-disp     y-disp      z-disp      x-vel       y-vel       z-vel      x-accl      y-accl      z-accl      x-coor      y-coor      z-coor
    22626  3.76601E-03 3.04407E+00-3.65278E-01 1.52909E-02 1.13668E+00 2.91030E-01 1.72970E-02 1.79745E-01 2.23586E-01 4.66314E+00-2.51468E+01-4.53470E+01



 n o d a l   p r i n t   o u t   f o r   t i m e  s t e p   19602                              ( at time 9.7995193E+00 )

 nodal point  x-rot      y-rot       z-rot       x-rot vel   y-rot vel   z-rot vel   x-rot acc   y-rot acc   z-rot acc
    22626 -2.04594E-02-5.30354E-05-4.54528E-04-8.24734E-03 9.28368E-05-7.47819E-06-1.33131E-03 2.77172E-04 2.99132E-04



 n o d a l   p r i n t   o u t   f o r   t i m e  s t e p   19802                              ( at time 9.8995093E+00 )

 nodal point  x-disp     y-disp      z-disp      x-vel       y-vel       z-vel      x-accl      y-accl      z-accl      x-coor      y-coor      z-coor
    22626  5.42449E-03 3.15865E+00-3.35015E-01 1.81907E-02 1.15374E+00 3.14016E-01 2.90002E-02 1.70631E-01 2.29881E-01 4.66480E+00-2.50322E+01-4.53167E+01



 n o d a l   p r i n t   o u t   f o r   t i m e  s t e p   19802                              ( at time 9.8995093E+00 )

 nodal point  x-rot      y-rot       z-rot       x-rot vel   y-rot vel   z-rot vel   x-rot acc   y-rot acc   z-rot acc
    22626 -2.12912E-02-4.21277E-05-4.53364E-04-8.38159E-03 1.25782E-04 2.18828E-05-1.34259E-03 3.29481E-04 2.93640E-04



 n o d a l   p r i n t   o u t   f o r   t i m e  s t e p   20003                              ( at time 9.9999992E+00 )

 nodal point  x-disp     y-disp      z-disp      x-vel       y-vel       z-vel      x-accl      y-accl      z-accl      x-coor      y-coor      z-coor
[...]
    22626 -2.00426E-01 2.92556E-03 2.77020E-03-1.91566E-02 2.04748E-04 2.94309E-04-2.09474E-04 1.31086E-04-1.08678E-04



 n o d a l   p r i n t   o u t   f o r   t i m e  s t e p   45205                              ( at time 2.2599738E+01 )

 nodal point  x-disp     y-disp      z-disp      x-vel       y-vel       z-vel      x-accl      y-accl      z-accl      x-coor      y-coor      z-coor
    22626  5.76221E-01 2.10759E+01 1.78266E+01 3.59692E-02 1.77355E+00 8.45426E-01-5.10933E-03 2.19031E-02-1.23315E-01 5.23560E+00-7.11490E+00-2.71551E+01



 n o d a l   p r i n t   o u t   f o r   t i m e  s t e p   45205                              ( at time 2.2599738E+01 )

 nodal point  x-rot      y-rot       z-rot       x-rot vel   y-rot vel   z-rot vel   x-rot acc   y-rot acc   z-rot acc
    22626 -2.02343E-01 2.94613E-03 2.79984E-03-1.91840E-02 2.05659E-04 3.00397E-04-2.73983E-04 9.10844E-06 6.08850E-05



 n o d a l   p r i n t   o u t   f o r   t i m e  s t e p   45405                              ( at time 2.2699728E+01 )

 nodal point  x-disp     y-disp      z-disp      x-vel       y-vel       z-vel      x-accl      y-accl      z-accl      x-coor      y-coor      z-coor
    22626  5.79805E-01 2.12534E+01 1.79105E+01 3.57894E-02 1.77642E+00 8.33471E-01-1.79758E-03 2.86825E-02-1.19565E-01 5.23918E+00-6.93738E+00-2.70712E+01



 n o d a l   p r i n t   o u t   f o r   t i m e  s t e p   45405                              ( at time 2.2699728E+01 )

 nodal point  x-rot      y-rot       z-rot       x-rot vel   y-rot vel   z-rot vel   x-rot acc   y-rot acc   z-rot acc
    22626 -2.04261E-01 2.96580E-03 2.83002E-03-1.92020E-02 1.91132E-04 2.98421E-04-1.79653E-04-1.45286E-04-1.97637E-05



 n o d a l   p r i n t   o u t   f o r   t i m e  s t e p   45605                              ( at time 2.2799718E+01 )

 nodal point  x-disp     y-disp      z-disp      x-vel       y-vel       z-vel      x-accl      y-accl      z-accl      x-coor      y-coor      z-coor
    22626  5.83356E-01 2.14311E+01 1.79933E+01 3.53139E-02 1.77723E+00 8.23415E-01-4.75592E-03 8.13082E-03-1.00571E-01 5.24273E+00-6.75973E+00-2.69884E+01



 n o d a l   p r i n t   o u t   f o r   t i m e  s t e p   45605                              ( at time 2.2799718E+01 )

 nodal point  x-rot      y-rot       z-rot       x-rot vel   y-rot vel   z-rot vel   x-rot acc   y-rot acc   z-rot acc
    22626 -2.06182E-01 2.98494E-03 2.85924E-03-1.92109E-02 1.93005E-04 2.93871E-04-8.89308E-05 1.87318E-05-4.54978E-05



 n o d a l   p r i n t   o u t   f o r   t i m e  s t e p   45805                              ( at time 2.2899708E+01 )

 nodal point  x-disp     y-disp      z-disp      x-vel       y-vel       z-vel      x-accl      y-accl      z-accl      x-coor      y-coor      z-coor
    22626  5.86924E-01 2.16089E+01 1.80752E+01 3.58622E-02 1.77899E+00 8.13509E-01 5.48353E-03 1.75925E-02-9.90679E-02 5.24630E+00-6.58191E+00-2.69066E+01



 n o d a l   p r i n t   o u t   f o r   t i m e  s t e p   45805                              ( at time 2.2899708E+01 )

 nodal point  x-rot      y-rot       z-rot       x-rot vel   y-rot vel   z-rot vel   x-rot acc   y-rot acc   z-rot acc
    22626 -2.08104E-01 3.00447E-03 2.88901E-03-1.92317E-02 1.99435E-04 2.99767E-04-2.08080E-04 6.43122E-05 5.89619E-05



 n o d a l   p r i n t   o u t   f o r   t i m e  s t e p   46005                              ( at time 2.2999698E+01 )

 nodal point  x-disp     y-disp      z-disp      x-vel       y-vel       z-vel      x-accl      y-accl      z-accl      x-coor      y-coor      z-coor
    22626  5.90518E-01 2.17868E+01 1.81561E+01 3.56037E-02 1.77919E+00 8.05223E-01-2.58499E-03 1.96952E-03-8.28694E-02 5.24989E+00-6.40404E+00-2.68256E+01



 n o d a l   p r i n t   o u t   f o r   t i m e  s t e p   46005                              ( at time 2.2999698E+01 )

 nodal point  x-rot      y-rot       z-rot       x-rot vel   y-rot vel   z-rot vel   x-rot acc   y-rot acc   z-rot acc
    22626 -2.10027E-01 3.02415E-03 2.91879E-03-1.92512E-02 1.86007E-04 2.93785E-04-1.94608E-04-1.34298E-04-5.98249E-05



 n o d a l   p r i n t   o u t   f o r   t i m e  s t e p   46205                              ( at time 2.3099688E+01 )

 nodal point  x-disp     y-disp      z-disp      x-vel       y-vel       z-vel      x-accl      y-accl      z-accl      x-coor      y-coor      z-coor
    22626  5.94075E-01 2.19647E+01 1.82362E+01 3.54448E-02 1.77990E+00 7.98417E-01-1.58942E-03 7.10447E-03-6.80719E-02 5.25345E+00-6.22610E+00-2.67455E+01



 n o d a l   p r i n t   o u t   f o r   t i m e  s t e p   46205                              ( at time 2.3099688E+01 )

 nodal point  x-rot      y-rot       z-rot       x-rot vel   y-rot vel   z-rot vel   x-rot acc   y-rot acc   z-rot acc
    22626 -2.11952E-01 3.04217E-03 2.94817E-03-1.92504E-02 1.82364E-04 2.90224E-04 7.07883E-06-3.64350E-05-3.56171E-05



 n o d a l   p r i n t   o u t   f o r   t i m e  s t e p   46405                              ( at time 2.3199678E+01 )

 nodal point  x-disp     y-disp      z-disp      x-vel       y-vel       z-vel      x-accl      y-accl      z-accl      x-coor      y-coor      z-coor
    22626  5.97612E-01 2.21427E+01 1.83157E+01 3.53891E-02 1.78009E+00 7.90759E-01-5.56386E-04 1.88726E-03-7.65871E-02 5.25699E+00-6.04813E+00-2.66660E+01



 n o d a l   p r i n t   o u t   f o r   t i m e  s t e p   46405                              ( at time 2.3199678E+01 )

 nodal point  x-rot      y-rot       z-rot       x-rot vel   y-rot vel   z-rot vel   x-rot acc   y-rot acc   z-rot acc
    22626 -2.13876E-01 3.06085E-03 2.97752E-03-1.92520E-02 1.92874E-04 2.96186E-04-1.53496E-05 1.05110E-04 5.96252E-05



 n o d a l   p r i n t   o u t   f o r   t i m e  s t e p   46605                              ( at time 2.3299668E+01 )

 nodal point  x-disp     y-disp      z-disp      x-vel       y-vel       z-vel      x-accl      y-accl      z-accl      x-coor      y-coor      z-coor
    22626  6.01181E-01 2.23207E+01 1.83945E+01 3.57764E-02 1.77973E+00 7.86692E-01 3.87335E-03-3.51468E-03-4.06733E-02 5.26056E+00-5.87017E+00-2.65872E+01



 n o d a l   p r i n t   o u t   f o r   t i m e  s t e p   46605                              ( at time 2.3299668E+01 )

 nodal point  x-rot      y-rot       z-rot       x-rot vel   y-rot vel   z-rot vel   x-rot acc   y-rot acc   z-rot acc
    22626 -2.15801E-01 3.07978E-03 3.00672E-03-1.92502E-02 1.92753E-04 2.92089E-04 1.82001E-05-1.20591E-06-4.09720E-05



 n o d a l   p r i n t   o u t   f o r   t i m e  s t e p   46805                              ( at time 2.3399658E+01 )

 nodal point  x-disp     y-disp      z-disp      x-vel       y-vel       z-vel      x-accl      y-accl      z-accl      x-coor      y-coor      z-coor
    22626  6.04689E-01 2.24986E+01 1.84729E+01 3.48260E-02 1.77965E+00 7.81461E-01-9.50543E-03-8.94152E-04-5.23114E-02 5.26406E+00-5.69223E+00-2.65088E+01



 n o d a l   p r i n t   o u t   f o r   t i m e  s t e p   46805                              ( at time 2.3399658E+01 )

 nodal point  x-rot      y-rot       z-rot       x-rot vel   y-rot vel   z-rot vel   x-rot acc   y-rot acc   z-rot acc
    22626 -2.17725E-01 3.09826E-03 3.03573E-03-1.92269E-02 1.80517E-04 2.89400E-04 2.33057E-04-1.22372E-04-2.68938E-05



 n o d a l   p r i n t   o u t   f o r   t i m e  s t e p   47005                              ( at time 2.3499648E+01 )

 nodal point  x-disp     y-disp      z-disp      x-vel       y-vel       z-vel      x-accl      y-accl      z-accl      x-coor      y-coor      z-coor
    22626  6.08199E-01 2.26765E+01 1.85508E+01 3.46709E-02 1.77877E+00 7.77573E-01-1.55079E-03-8.73526E-03-3.88819E-02 5.26757E+00-5.51435E+00-2.64309E+01



 n o d a l   p r i n t   o u t   f o r   t i m e  s t e p   47005                              ( at time 2.3499648E+01 )

 nodal point  x-rot      y-rot       z-rot       x-rot vel   y-rot vel   z-rot vel   x-rot acc   y-rot acc   z-rot acc
    22626 -2.19647E-01 3.11598E-03 3.06463E-03-1.92223E-02 1.81938E-04 2.91272E-04 4.52664E-05 1.42064E-05 1.87239E-05



 n o d a l   p r i n t   o u t   f o r   t i m e  s t e p   47205                              ( at time 2.3599638E+01 )

 nodal point  x-disp     y-disp      z-disp      x-vel       y-vel       z-vel      x-accl      y-accl      z-accl      x-coor      y-coor      z-coor
    22626  6.11718E-01 2.28543E+01 1.86285E+01 3.53910E-02 1.77799E+00 7.75612E-01 7.20152E-03-7.84842E-03-1.96175E-02 5.27109E+00-5.33652E+00-2.63532E+01



 n o d a l   p r i n t   o u t   f o r   t i m e  s t e p   47205                              ( at time 2.3599638E+01 )

 nodal point  x-rot      y-rot       z-rot       x-rot vel   y-rot vel   z-rot vel   x-rot acc   y-rot acc   z-rot acc
    22626 -2.21567E-01 3.13487E-03 3.09331E-03-1.91946E-02 1.87597E-04 2.90734E-04 2.77639E-04 5.66029E-05-5.37578E-06



 n o d a l   p r i n t   o u t   f o r   t i m e  s t e p   47405                              ( at time 2.3699628E+01 )

 nodal point  x-disp     y-disp      z-disp      x-vel       y-vel       z-vel      x-accl      y-accl      z-accl      x-coor      y-coor      z-coor
    22626  6.15232E-01 2.30320E+01 1.87059E+01 3.53163E-02 1.77670E+00 7.73852E-01-7.46542E-04-1.28972E-02-1.76011E-02 5.27461E+00-5.15882E+00-2.62758E+01



 n o d a l   p r i n t   o u t   f o r   t i m e  s t e p   47405                              ( at time 2.3699628E+01 )

 nodal point  x-rot      y-rot       z-rot       x-rot vel   y-rot vel   z-rot vel   x-rot acc   y-rot acc   z-rot acc
    22626 -2.23485E-01 3.15290E-03 3.12226E-03-1.91710E-02 1.79099E-04 2.90458E-04 2.35385E-04-8.49969E-05-2.76308E-06



 n o d a l   p r i n t   o u t   f o r   t i m e  s t e p   47605                              ( at time 2.3799618E+01 )

 nodal point  x-disp     y-disp      z-disp      x-vel       y-vel       z-vel      x-accl      y-accl      z-accl      x-coor      y-coor      z-coor
    22626  6.18737E-01 2.32096E+01 1.87833E+01 3.51072E-02 1.77529E+00 7.73974E-01-2.09120E-03-1.40301E-02 1.22620E-03 5.27811E+00-4.98122E+00-2.61984E+01



 n o d a l   p r i n t   o u t   f o r   t i m e  s t e p   47605                              ( at time 2.3799618E+01 )

 nodal point  x-rot      y-rot       z-rot       x-rot vel   y-rot vel   z-rot vel   x-rot acc   y-rot acc   z-rot acc
    22626 -2.25400E-01 3.17100E-03 3.15095E-03-1.91386E-02 1.79200E-04 2.89387E-04 3.24788E-04 1.01045E-06-1.07123E-05



 n o d a l   p r i n t   o u t   f o r   t i m e  s t e p   47805                              ( at time 2.3899608E+01 )

 nodal point  x-disp     y-disp      z-disp      x-vel       y-vel       z-vel      x-accl      y-accl      z-accl      x-coor      y-coor      z-coor
    22626  6.22250E-01 2.33870E+01 1.88608E+01 3.52240E-02 1.77369E+00 7.74601E-01 1.16746E-03-1.60148E-02 6.26681E-03 5.28162E+00-4.80379E+00-2.61210E+01



 n o d a l   p r i n t   o u t   f o r   t i m e  s t e p   47805                              ( at time 2.3899608E+01 )

 nodal point  x-rot      y-rot       z-rot       x-rot vel   y-rot vel   z-rot vel   x-rot acc   y-rot acc   z-rot acc
    22626 -2.27311E-01 3.18893E-03 3.17923E-03-1.90958E-02 1.76469E-04 2.83870E-04 4.27311E-04-2.73057E-05-5.51781E-05



 n o d a l   p r i n t   o u t   f o r   t i m e  s t e p   48005                              ( at time 2.3999598E+01 )

 nodal point  x-disp     y-disp      z-disp      x-vel       y-vel       z-vel      x-accl      y-accl      z-accl      x-coor      y-coor      z-coor
    22626  6.25791E-01 2.35643E+01 1.89383E+01 3.53565E-02 1.77148E+00 7.76427E-01 1.32575E-03-2.21074E-02 1.82625E-02 5.28517E+00-4.62654E+00-2.60435E+01



 n o d a l   p r i n t   o u t   f o r   t i m e  s t e p   48005                              ( at time 2.3999598E+01 )

 nodal point  x-rot      y-rot       z-rot       x-rot vel   y-rot vel   z-rot vel   x-rot acc   y-rot acc   z-rot acc
    22626 -2.29218E-01 3.20739E-03 3.20786E-03-1.90535E-02 1.89934E-04 2.87328E-04 4.23296E-04 1.34666E-04 3.45841E-05



 n o d a l   p r i n t   o u t   f o r   t i m e  s t e p   48205                              ( at time 2.4099588E+01 )

 nodal point  x-disp     y-disp      z-disp      x-vel       y-vel       z-vel      x-accl      y-accl      z-accl      x-coor      y-coor      z-coor
    22626  6.29280E-01 2.37413E+01 1.90160E+01 3.45104E-02 1.76968E+00 7.78392E-01-8.46255E-03-1.80464E-02 1.96540E-02 5.28865E+00-4.44952E+00-2.59657E+01



 n o d a l   p r i n t   o u t   f o r   t i m e  s t e p   48205                              ( at time 2.4099588E+01 )

 nodal point  x-rot      y-rot       z-rot       x-rot vel   y-rot vel   z-rot vel   x-rot acc   y-rot acc   z-rot acc
    22626 -2.31122E-01 3.22609E-03 3.23615E-03-1.90115E-02 1.77421E-04 2.79145E-04 4.19786E-04-1.25149E-04-8.18373E-05



 n o d a l   p r i n t   o u t   f o r   t i m e  s t e p   48405                              ( at time 2.4199578E+01 )

 nodal point  x-disp     y-disp      z-disp      x-vel       y-vel       z-vel      x-accl      y-accl      z-accl      x-coor      y-coor      z-coor
    22626  6.32741E-01 2.39181E+01 1.90940E+01 3.47305E-02 1.76670E+00 7.82448E-01 2.20189E-03-2.97854E-02 4.05643E-02 5.29212E+00-4.27272E+00-2.58877E+01



 n o d a l   p r i n t   o u t   f o r   t i m e  s t e p   48405                              ( at time 2.4199578E+01 )

 nodal point  x-rot      y-rot       z-rot       x-rot vel   y-rot vel   z-rot vel   x-rot acc   y-rot acc   z-rot acc
    22626 -2.33020E-01 3.24414E-03 3.26376E-03-1.89714E-02 1.85616E-04 2.78107E-04 4.01333E-04 8.19662E-05-1.03831E-05



 n o d a l   p r i n t   o u t   f o r   t i m e  s t e p   48605                              ( at time 2.4299568E+01 )

 nodal point  x-disp     y-disp      z-disp      x-vel       y-vel       z-vel      x-accl      y-accl      z-accl      x-coor      y-coor      z-coor
    22626  6.36236E-01 2.40946E+01 1.91724E+01 3.53049E-02 1.76383E+00 7.86656E-01 5.74466E-03-2.86915E-02 4.20776E-02 5.29561E+00-4.09622E+00-2.58093E+01



 n o d a l   p r i n t   o u t   f o r   t i m e  s t e p   48605                              ( at time 2.4299568E+01 )

 nodal point  x-rot      y-rot       z-rot       x-rot vel   y-rot vel   z-rot vel   x-rot acc   y-rot acc   z-rot acc
    22626 -2.34914E-01 3.26305E-03 3.29168E-03-1.89216E-02 1.89564E-04 2.78764E-04 4.97614E-04 3.94766E-05 6.57458E-06



 n o d a l   p r i n t   o u t   f o r   t i m e  s t e p   48805                              ( at time 2.4399558E+01 )

 nodal point  x-disp     y-disp      z-disp      x-vel       y-vel       z-vel      x-accl      y-accl      z-accl      x-coor      y-coor      z-coor
    22626  6.39715E-01 2.42708E+01 1.92513E+01 3.45075E-02 1.76030E+00 7.91573E-01-7.97505E-03-3.53106E-02 4.91730E-02 5.29909E+00-3.92003E+00-2.57304E+01



 n o d a l   p r i n t   o u t   f o r   t i m e  s t e p   48805                              ( at time 2.4399558E+01 )

 nodal point  x-rot      y-rot       z-rot       x-rot vel   y-rot vel   z-rot vel   x-rot acc   y-rot acc   z-rot acc
    22626 -2.36802E-01 3.28201E-03 3.31942E-03-1.88618E-02 1.87121E-04 2.75753E-04 5.98579E-04-2.44285E-05-3.01162E-05



 n o d a l   p r i n t   o u t   f o r   t i m e  s t e p   49006                              ( at time 2.4500048E+01 )

 nodal point  x-disp     y-disp      z-disp      x-vel       y-vel       z-vel      x-accl      y-accl      z-accl      x-coor      y-coor      z-coor
    22626  6.43181E-01 2.44475E+01 1.93312E+01 3.47074E-02 1.75698E+00 7.97421E-01 1.98901E-03-3.30288E-02 5.82026E-02 5.30256E+00-3.74330E+00-2.56505E+01



 n o d a l   p r i n t   o u t   f o r   t i m e  s t e p   49006                              ( at time 2.4500048E+01 )

 nodal point  x-rot      y-rot       z-rot       x-rot vel   y-rot vel   z-rot vel   x-rot acc   y-rot acc   z-rot acc
    22626 -2.38695E-01 3.30081E-03 3.34655E-03-1.88085E-02 1.89345E-04 2.71609E-04 5.30571E-04 2.21272E-05-4.12368E-05



 n o d a l   p r i n t   o u t   f o r   t i m e  s t e p   49206                              ( at time 2.4600038E+01 )

 nodal point  x-disp     y-disp      z-disp      x-vel       y-vel       z-vel      x-accl      y-accl      z-accl      x-coor      y-coor      z-coor
    22626  6.46627E-01 2.46230E+01 1.94113E+01 3.47298E-02 1.75315E+00 8.04281E-01 2.24618E-04-3.82804E-02 6.86071E-02 5.30600E+00-3.56782E+00-2.55705E+01



 n o d a l   p r i n t   o u t   f o r   t i m e  s t e p   49206                              ( at time 2.4600038E+01 )

 nodal point  x-rot      y-rot       z-rot       x-rot vel   y-rot vel   z-rot vel   x-rot acc   y-rot acc   z-rot acc
    22626 -2.40572E-01 3.31977E-03 3.37396E-03-1.87403E-02 1.87492E-04 2.78629E-04 6.82275E-04-1.85270E-05 7.02124E-05



 n o d a l   p r i n t   o u t   f o r   t i m e  s t e p   49406                              ( at time 2.4700028E+01 )

 nodal point  x-disp     y-disp      z-disp      x-vel       y-vel       z-vel      x-accl      y-accl      z-accl      x-coor      y-coor      z-coor
    22626  6.50097E-01 2.47981E+01 1.94920E+01 3.46453E-02 1.74931E+00 8.10841E-01-8.45623E-04-3.84791E-02 6.56034E-02 5.30947E+00-3.39270E+00-2.54897E+01



 n o d a l   p r i n t   o u t   f o r   t i m e  s t e p   49406                              ( at time 2.4700028E+01 )

 nodal point  x-rot      y-rot       z-rot       x-rot vel   y-rot vel   z-rot vel   x-rot acc   y-rot acc   z-rot acc
    22626 -2.42442E-01 3.33898E-03 3.40138E-03-1.86820E-02 1.92688E-04 2.69859E-04 5.83128E-04 5.19634E-05-8.77129E-05



 n o d a l   p r i n t   o u t   f o r   t i m e  s t e p   49606                              ( at time 2.4800018E+01 )

 nodal point  x-disp     y-disp      z-disp      x-vel       y-vel       z-vel      x-accl      y-accl      z-accl      x-coor      y-coor      z-coor
    22626  6.53546E-01 2.49728E+01 1.95735E+01 3.42747E-02 1.74441E+00 8.18844E-01-3.70663E-03-4.89172E-02 8.00349E-02 5.31292E+00-3.21806E+00-2.54082E+01



 n o d a l   p r i n t   o u t   f o r   t i m e  s t e p   49606                              ( at time 2.4800018E+01 )

 nodal point  x-rot      y-rot       z-rot       x-rot vel   y-rot vel   z-rot vel   x-rot acc   y-rot acc   z-rot acc
    22626 -2.44307E-01 3.35834E-03 3.42824E-03-1.86104E-02 1.90384E-04 2.67500E-04 7.15116E-04-2.30414E-05-2.35955E-05



 n o d a l   p r i n t   o u t   f o r   t i m e  s t e p   49806                              ( at time 2.4900008E+01 )

 nodal point  x-disp     y-disp      z-disp      x-vel       y-vel       z-vel      x-accl      y-accl      z-accl      x-coor      y-coor      z-coor
    22626  6.56980E-01 2.51470E+01 1.96558E+01 3.44320E-02 1.74010E+00 8.27085E-01 1.57344E-03-4.31240E-02 8.24257E-02 5.31635E+00-3.04385E+00-2.53260E+01



 n o d a l   p r i n t   o u t   f o r   t i m e  s t e p   49806                              ( at time 2.4900008E+01 )

 nodal point  x-rot      y-rot       z-rot       x-rot vel   y-rot vel   z-rot vel   x-rot acc   y-rot acc   z-rot acc
    22626 -2.46164E-01 3.37691E-03 3.45498E-03-1.85469E-02 1.86051E-04 2.65702E-04 6.35325E-04-4.33318E-05-1.79809E-05



 n o d a l   p r i n t   o u t   f o r   t i m e  s t e p   50006                              ( at time 2.4999998E+01 )

 nodal point  x-disp     y-disp      z-disp      x-vel       y-vel       z-vel      x-accl      y-accl      z-accl      x-coor      y-coor      z-coor
    22626  6.60455E-01 2.53207E+01 1.97389E+01 3.51253E-02 1.73449E+00 8.36449E-01 6.93340E-03-5.61146E-02 9.36445E-02 5.31983E+00-2.87015E+00-2.52428E+01



 n o d a l   p r i n t   o u t   f o r   t i m e  s t e p   50006                              ( at time 2.4999998E+01 )

 nodal point  x-rot      y-rot       z-rot       x-rot vel   y-rot vel   z-rot vel   x-rot acc   y-rot acc   z-rot acc
    22626 -2.48015E-01 3.39586E-03 3.48173E-03-1.84866E-02 1.94409E-04 2.69246E-04 6.03198E-04 8.35901E-05 3.54459E-05
