 LSTC 50th% Full_FE H-III Dummy (Beta Version, February 17, 2019)        
                    ls-dyna smp s R16 R16.0_619_d222963 date 03/18/2025

{BEGIN LEGEND}
 Entity #        Title
        1     Upper_Neck_Force_INJURY                                              
{END LEGEND}



 line#1  section#     time        x-force     y-force     z-force    magnitude
 line#2  resultant  moments       x-moment    y-moment    z-moment   magnitude
 line#3  centroids                x           y           z            area  
           1    0.00000E+00     0.0000E+00  0.0000E+00  0.0000E+00  0.0000E+00
ac ID =   33377                 0.0000E+00  0.0000E+00  0.0000E+00  0.0000E+00
                               -3.7437E-01  1.0501E+01 -4.6940E+01  0.0000E+00

           1    1.00490E-01     1.3572E-04 -4.9860E-03  2.5983E-01  2.5987E-01
ac ID =   33377                 4.2540E-01 -1.2521E+00 -2.7095E-02  1.3227E+00
                               -3.7387E-01  1.0590E+01 -4.6886E+01  2.5147E+03

           1    2.00480E-01    -4.4280E-02  6.3913E-04  4.4144E-01  4.4366E-01
ac ID =   33377                 3.1199E-01 -1.5953E+00  2.0348E-02  1.6256E+00
                               -3.7386E-01  1.0591E+01 -4.6888E+01  2.5147E+03

           1    3.00470E-01     1.4916E-02 -3.2263E-03  2.1735E-01  2.1788E-01
ac ID =   33377                 2.2111E-02 -3.3467E-01  6.2602E-02  3.4119E-01
                               -3.7382E-01  1.0591E+01 -4.6889E+01  2.5147E+03

           1    4.00460E-01     3.0073E-03  1.0688E-02  8.7702E-02  8.8402E-02
ac ID =   33377                -4.9836E-01 -9.4510E-01  2.5353E-03  1.0684E+00
                               -3.7383E-01  1.0592E+01 -4.6890E+01  2.5147E+03

           1    5.00450E-01    -4.0616E-02  4.5971E-03  1.6143E-01  1.6652E-01
ac ID =   33377                -3.9475E-01 -1.5048E+00 -1.0984E-01  1.5596E+00
                               -3.7385E-01  1.0594E+01 -4.6893E+01  2.5147E+03

           1    6.00440E-01    -1.0740E-02  4.0732E-03  3.4336E-01  3.4355E-01
ac ID =   33377                 9.2034E-02 -1.3242E+00 -3.4264E-02  1.3279E+00
                               -3.7385E-01  1.0595E+01 -4.6897E+01  2.5147E+03

           1    7.00430E-01     2.7199E-03 -5.2293E-03  2.9464E-01  2.9470E-01
ac ID =   33377                 1.3709E-01 -5.0159E-01  7.9028E-02  5.2596E-01
                               -3.7389E-01  1.0597E+01 -4.6901E+01  2.5147E+03

           1    8.00420E-01    -3.1167E-02 -1.1268E-03  1.0036E-01  1.0509E-01
ac ID =   33377                 8.5214E-02 -1.0501E+00  4.5150E-02  1.0546E+00
                               -3.7394E-01  1.0599E+01 -4.6905E+01  2.5147E+03

           1    9.00410E-01    -3.9079E-02  8.1044E-04  6.2359E-02  7.3597E-02
ac ID =   33377                 8.9371E-02 -1.0681E+00  1.9654E-03  1.0718E+00
                               -3.7399E-01  1.0601E+01 -4.6909E+01  2.5147E+03

           1    1.00040E+00     1.4862E-02 -3.8264E-03  2.2096E-01  2.2150E-01
ac ID =   33377                 3.7210E-01 -2.8788E-01 -5.9643E-02  4.7423E-01
                               -3.7400E-01  1.0604E+01 -4.6915E+01  2.5147E+03

           1    1.10039E+00     1.4278E-04 -3.1977E-03  2.7063E-01  2.7065E-01
ac ID =   33377                 3.4934E-01 -8.8147E-01 -5.4455E-02  9.4973E-01
                               -3.7401E-01  1.0607E+01 -4.6921E+01  2.5147E+03

           1    1.20038E+00    -3.2282E-02 -3.4735E-04  1.2939E-01  1.3336E-01
ac ID =   33377                -1.5455E-01 -1.1792E+00  7.2741E-03  1.1893E+00
                               -3.7403E-01  1.0610E+01 -4.6927E+01  2.5147E+03

           1    1.30037E+00    -1.0378E-02  4.8145E-03  7.4557E-02  7.5430E-02
ac ID =   33377                -3.0480E-01 -8.8130E-01  1.9710E-02  9.3273E-01
                               -3.7407E-01  1.0612E+01 -4.6933E+01  2.5147E+03

           1    1.40036E+00     7.9807E-03  3.7165E-03  1.7389E-01  1.7411E-01
ac ID =   33377                -2.9192E-01 -8.3286E-01  2.6965E-02  8.8295E-01
                               -3.7409E-01  1.0616E+01 -4.6941E+01  2.5147E+03

           1    1.50035E+00    -2.7045E-02  1.3509E-03  3.2819E-01  3.2931E-01
ac ID =   33377                -1.4286E-02 -1.5781E+00 -4.3487E-02  1.5787E+00
                               -3.7413E-01  1.0620E+01 -4.6949E+01  2.5147E+03

           1    1.60034E+00    -1.8948E-02 -2.2420E-03  2.2095E-01  2.2177E-01
ac ID =   33377                -1.9553E-02 -1.3760E+00 -1.5906E-02  1.3762E+00
                               -3.7420E-01  1.0624E+01 -4.6957E+01  2.5147E+03

           1    1.70033E+00    -3.1020E-03 -4.2277E-04  5.8983E-02  5.9066E-02
ac ID =   33377                -4.3750E-02 -6.6604E-01  8.7905E-02  6.7324E-01
                               -3.7427E-01  1.0627E+01 -4.6965E+01  2.5147E+03

           1    1.80032E+00    -2.0185E-02  1.2824E-03  7.7062E-02  7.9672E-02
ac ID =   33377                 8.4159E-02 -1.1171E+00  1.2451E-01  1.1272E+00
                               -3.7434E-01  1.0632E+01 -4.6974E+01  2.5147E+03

           1    1.90031E+00    -8.0058E-03 -2.7744E-03  1.9208E-01  1.9227E-01
ac ID =   33377                 2.7584E-01 -8.3076E-01 -7.3257E-02  8.7841E-01
                               -3.7439E-01  1.0636E+01 -4.6984E+01  2.5147E+03

           1    2.00030E+00    -2.1384E-03 -4.2455E-03  1.5589E-01  1.5596E-01
ac ID =   33377                 2.0496E-01 -4.4506E-01 -1.4765E-01  5.1175E-01
                               -3.7444E-01  1.0641E+01 -4.6993E+01  2.5147E+03

           1    2.10029E+00    -2.5440E-02  2.4795E-03  2.9612E-03  2.5732E-02
ac ID =   33377                -7.2807E-02 -6.9458E-01  3.6770E-02  6.9936E-01
                               -3.7450E-01  1.0645E+01 -4.7003E+01  2.5147E+03

           1    2.20028E+00    -1.3225E-02  5.0465E-03  3.5243E-03  1.4587E-02
ac ID =   33377                -2.3497E-01 -6.5785E-01  2.7132E-02  6.9908E-01
                               -3.7456E-01  1.0650E+01 -4.7013E+01  2.5147E+03

           1    2.30027E+00     1.2206E-03  4.8245E-03  1.4874E-01  1.4882E-01
ac ID =   33377                -1.4951E-01 -8.1423E-01 -6.2968E-02  8.3023E-01
                               -3.7461E-01  1.0655E+01 -4.7024E+01  2.5147E+03

           1    2.40026E+00    -1.7503E-02 -1.8427E-03  1.8885E-01  1.8967E-01
ac ID =   33377                -1.5091E-01 -1.1844E+00  7.9711E-02  1.1966E+00
                               -3.7469E-01  1.0661E+01 -4.7035E+01  2.5147E+03

           1    2.50025E+00    -1.8846E-02  1.1975E-03 -7.8501E-06  1.8884E-02
ac ID =   33377                -2.0020E-01 -8.9408E-01  1.3145E-01  9.2560E-01
                               -3.7479E-01  1.0665E+01 -4.7045E+01  2.5147E+03

           1    2.60024E+00    -6.9333E-03  5.8355E-03 -7.6562E-02  7.7097E-02
ac ID =   33377                -2.0614E-01 -1.8396E-01  3.7821E-02  2.7886E-01
                               -3.7490E-01  1.0671E+01 -4.7056E+01  2.5147E+03

           1    2.70023E+00    -1.1877E-02 -1.7750E-03  9.8046E-03  1.5503E-02
ac ID =   33377                 3.1407E-02 -2.1789E-01  3.9315E-02  2.2362E-01
                               -3.7501E-01  1.0676E+01 -4.7068E+01  2.5147E+03

           1    2.80022E+00    -5.4168E-03 -4.5747E-03  6.3274E-02  6.3670E-02
ac ID =   33377                 3.6729E-01 -1.4175E-01 -1.7967E-02  3.9410E-01
                               -3.7510E-01  1.0682E+01 -4.7079E+01  2.5147E+03

           1    2.90021E+00     5.2903E-03 -2.8308E-03 -9.8032E-03  1.1494E-02
ac ID =   33377                 1.4868E-01  3.1480E-01 -7.8606E-02  3.5691E-01
                               -3.7520E-01  1.0687E+01 -4.7090E+01  2.5147E+03

           1    3.00020E+00    -7.6071E-03  2.0761E-03 -8.9015E-02  8.9364E-02
ac ID =   33377                -3.8081E-02  8.1943E-02 -5.3459E-02  1.0499E-01
                               -3.7530E-01  1.0692E+01 -4.7101E+01  2.5147E+03

           1    3.10019E+00    -2.6707E-03  3.7345E-04 -8.6962E-03  9.1047E-03
ac ID =   33377                 3.8313E-02 -2.5109E-01 -2.8052E-02  2.5554E-01
                               -3.7538E-01  1.0698E+01 -4.7113E+01  2.5147E+03

           1    3.20018E+00     3.8204E-03  1.8938E-03  7.0042E-02  7.0172E-02
ac ID =   33377                -1.9176E-02 -3.3493E-01  2.1074E-02  3.3614E-01
                               -3.7545E-01  1.0703E+01 -4.7125E+01  2.5147E+03

           1    3.30017E+00     3.3391E-04  7.3831E-04  1.3380E-02  1.3405E-02
ac ID =   33377                -2.3110E-01 -3.5509E-01  1.1537E-01  4.3910E-01
                               -3.7554E-01  1.0708E+01 -4.7137E+01  2.5147E+03

           1    3.40016E+00    -2.6410E-03  3.1258E-03 -1.0102E-01  1.0110E-01
ac ID =   33377                -3.0571E-01 -3.3759E-02  1.1861E-01  3.2965E-01
                               -3.7565E-01  1.0713E+01 -4.7148E+01  2.5147E+03

           1    3.50015E+00    -4.7502E-03  3.2055E-03 -1.3159E-01  1.3171E-01
ac ID =   33377                -1.5784E-01  2.6975E-01  4.4156E-02  3.1564E-01
                               -3.7576E-01  1.0719E+01 -4.7160E+01  2.5147E+03

           1    3.60014E+00     6.5302E-03 -2.9324E-03 -5.3696E-02  5.4171E-02
ac ID =   33377                 1.1903E-01  7.5033E-01 -9.7517E-02  7.6595E-01
                               -3.7586E-01  1.0724E+01 -4.7172E+01  2.5147E+03

           1    3.70013E+00     1.2120E-02 -4.6971E-03 -4.8799E-02  5.0501E-02
ac ID =   33377                 3.0336E-01  8.8932E-01 -1.7150E-01  9.5516E-01
                               -3.7595E-01  1.0729E+01 -4.7183E+01  2.5147E+03

           1    3.80012E+00     1.0369E-02 -2.7774E-03 -1.3437E-01  1.3479E-01
ac ID =   33377                 2.4656E-01  1.1523E+00 -7.7336E-02  1.1809E+00
                               -3.7605E-01  1.0734E+01 -4.7195E+01  2.5147E+03

           1    3.90011E+00     1.1584E-02 -5.7131E-04 -1.9691E-01  1.9725E-01
ac ID =   33377                 1.8248E-01  1.2279E+00 -4.4943E-02  1.2422E+00
                               -3.7613E-01  1.0739E+01 -4.7206E+01  2.5147E+03

           1    4.00010E+00     1.0527E-02 -7.3108E-04 -1.4759E-01  1.4797E-01
ac ID =   33377                -5.7611E-03  8.9884E-01  1.4700E-03  8.9886E-01
                               -3.7618E-01  1.0744E+01 -4.7217E+01  2.5147E+03

           1    4.10009E+00     1.3538E-02  2.3555E-04 -1.1543E-01  1.1622E-01
ac ID =   33377                -7.7087E-02  8.0554E-01 -5.3315E-02  8.1097E-01
                               -3.7622E-01  1.0749E+01 -4.7228E+01  2.5147E+03

           1    4.20008E+00     1.2627E-02  3.2114E-03 -1.6529E-01  1.6580E-01
ac ID =   33377                -2.3013E-01  8.3420E-01  8.7098E-02  8.6974E-01
                               -3.7627E-01  1.0754E+01 -4.7239E+01  2.5147E+03

           1    4.30007E+00     1.8312E-02  1.3374E-03 -2.6980E-01  2.7042E-01
ac ID =   33377                -2.1895E-01  1.3338E+00  9.1895E-02  1.3548E+00
                               -3.7635E-01  1.0759E+01 -4.7250E+01  2.5147E+03

           1    4.40006E+00     3.2640E-02  7.5313E-03 -2.4441E-01  2.4670E-01
ac ID =   33377                -1.7540E-01  1.7465E+00  4.9463E-02  1.7560E+00
                               -3.7641E-01  1.0764E+01 -4.7261E+01  2.5147E+03

           1    4.50005E+00     3.1160E-02 -2.3641E-03 -1.6799E-01  1.7088E-01
ac ID =   33377                 2.0574E-01  1.5268E+00  8.2048E-03  1.5406E+00
                               -3.7647E-01  1.0770E+01 -4.7272E+01  2.5147E+03

           1    4.60004E+00     3.9906E-02 -5.8182E-03 -2.2461E-01  2.2821E-01
ac ID =   33377                 3.7892E-01  1.7483E+00 -1.7192E-01  1.7971E+00
                               -3.7654E-01  1.0776E+01 -4.7282E+01  2.5147E+03

           1    4.70003E+00     4.3826E-02  4.6529E-04 -3.1071E-01  3.1378E-01
ac ID =   33377                 1.6279E-01  1.8164E+00 -1.1837E-01  1.8275E+00
                               -3.7657E-01  1.0782E+01 -4.7292E+01  2.5147E+03

           1    4.80002E+00     4.8063E-02  3.3110E-03 -3.4547E-01  3.4881E-01
ac ID =   33377                 2.0267E-02  1.7674E+00 -3.2243E-02  1.7679E+00
                               -3.7659E-01  1.0789E+01 -4.7303E+01  2.5147E+03

           1    4.90001E+00     5.4014E-02  1.6221E-03 -2.9867E-01  3.0352E-01
ac ID =   33377                 1.6466E-02  1.9885E+00  1.9211E-02  1.9887E+00
                               -3.7660E-01  1.0797E+01 -4.7314E+01  2.5147E+03

           1    5.00000E+00     5.2985E-02  2.9697E-04 -2.8519E-01  2.9007E-01
ac ID =   33377                -2.5329E-01  2.0088E+00  1.6619E-01  2.0315E+00
                               -3.7654E-01  1.0806E+01 -4.7325E+01  2.5147E+03

           1    5.10049E+00     6.7722E-02  7.6750E-03 -3.8731E-01  3.9326E-01
ac ID =   33377                -3.9705E-01  2.3385E+00 -2.2842E-03  2.3720E+00
                               -3.7653E-01  1.0815E+01 -4.7335E+01  2.5147E+03

           1    5.20048E+00     7.3253E-02  1.1980E-02 -4.2722E-01  4.3362E-01
ac ID =   33377                -4.3056E-01  2.7320E+00 -7.4839E-02  2.7667E+00
                               -3.7651E-01  1.0826E+01 -4.7346E+01  2.5147E+03

           1    5.30047E+00     7.4139E-02 -2.3910E-03 -4.0837E-01  4.1505E-01
ac ID =   33377                -1.6435E-01  2.6609E+00 -7.4212E-02  2.6670E+00
                               -3.7644E-01  1.0838E+01 -4.7358E+01  2.5147E+03

           1    5.40046E+00     8.9187E-02  5.2393E-03 -4.1075E-01  4.2036E-01
ac ID =   33377                -4.8158E-02  2.9971E+00 -5.7222E-03  2.9975E+00
                               -3.7639E-01  1.0852E+01 -4.7370E+01  2.5147E+03

           1    5.50045E+00     8.8303E-02  2.0722E-03 -4.9997E-01  5.0771E-01
ac ID =   33377                 6.9685E-02  3.2069E+00  8.6992E-04  3.2077E+00
                               -3.7632E-01  1.0866E+01 -4.7382E+01  2.5147E+03

           1    5.60044E+00     8.6870E-02  3.3429E-03 -5.8614E-01  5.9255E-01
ac ID =   33377                -5.3517E-02  3.4510E+00  2.3555E-02  3.4515E+00
                               -3.7621E-01  1.0883E+01 -4.7394E+01  2.5147E+03

           1    5.70043E+00     9.1805E-02  4.7582E-04 -5.9321E-01  6.0028E-01
ac ID =   33377                -9.5807E-02  3.3476E+00 -6.1324E-03  3.3490E+00
                               -3.7607E-01  1.0901E+01 -4.7406E+01  2.5147E+03

           1    5.80042E+00     1.0908E-01  5.9771E-03 -5.6451E-01  5.7499E-01
ac ID =   33377                -2.3056E-01  3.7130E+00 -1.1210E-02  3.7202E+00
                               -3.7591E-01  1.0921E+01 -4.7419E+01  2.5147E+03

           1    5.90041E+00     1.0803E-01  6.5345E-03 -6.0022E-01  6.0990E-01
ac ID =   33377                -4.9527E-01  3.9074E+00  1.9220E-02  3.9387E+00
                               -3.7573E-01  1.0942E+01 -4.7432E+01  2.5147E+03

           1    6.00040E+00     1.0639E-01  9.8501E-03 -6.7667E-01  6.8505E-01
ac ID =   33377                -5.2864E-01  3.9061E+00  1.9622E-01  3.9466E+00
                               -3.7556E-01  1.0965E+01 -4.7446E+01  2.5147E+03

           1    6.10039E+00     1.2325E-01  5.4197E-03 -6.7992E-01  6.9102E-01
ac ID =   33377                -5.1431E-01  4.1421E+00 -2.3592E-02  4.1740E+00
                               -3.7535E-01  1.0991E+01 -4.7460E+01  2.5147E+03

           1    6.20038E+00     1.1921E-01  8.2996E-03 -6.6310E-01  6.7378E-01
ac ID =   33377                -4.5839E-01  3.8358E+00 -2.3673E-01  3.8704E+00
                               -3.7516E-01  1.1018E+01 -4.7475E+01  2.5147E+03

           1    6.30037E+00     1.2274E-01  2.3701E-03 -7.1340E-01  7.2389E-01
ac ID =   33377                -2.2391E-01  3.9180E+00 -1.3417E-01  3.9267E+00
                               -3.7496E-01  1.1048E+01 -4.7490E+01  2.5147E+03

           1    6.40036E+00     1.2638E-01  7.7008E-03 -8.0947E-01  8.1932E-01
ac ID =   33377                -3.1752E-01  4.4278E+00  9.5744E-02  4.4402E+00
                               -3.7476E-01  1.1080E+01 -4.7505E+01  2.5147E+03

           1    6.50035E+00     1.3446E-01  7.8252E-04 -8.6358E-01  8.7399E-01
ac ID =   33377                -1.3739E-01  4.7821E+00  2.6023E-02  4.7841E+00
                               -3.7453E-01  1.1113E+01 -4.7521E+01  2.5147E+03

           1    6.60034E+00     1.3573E-01  3.1876E-03 -8.6186E-01  8.7249E-01
ac ID =   33377                -2.6642E-01  5.0115E+00 -2.1767E-01  5.0233E+00
                               -3.7429E-01  1.1150E+01 -4.7537E+01  2.5147E+03

           1    6.70033E+00     1.4823E-01  1.6404E-02 -8.8216E-01  8.9467E-01
ac ID =   33377                -6.3465E-01  5.1858E+00 -1.2206E-01  5.2259E+00
                               -3.7405E-01  1.1188E+01 -4.7554E+01  2.5147E+03

           1    6.80032E+00     1.5548E-01 -3.9091E-03 -9.3625E-01  9.4908E-01
ac ID =   33377                -2.6831E-01  5.5914E+00 -9.7257E-02  5.5986E+00
                               -3.7378E-01  1.1229E+01 -4.7571E+01  2.5147E+03

           1    6.90031E+00     1.4622E-01  1.2836E-02 -1.0042E+00  1.0149E+00
ac ID =   33377                -7.4122E-01  5.3648E+00 -8.6573E-02  5.4164E+00
                               -3.7353E-01  1.1273E+01 -4.7589E+01  2.5147E+03

           1    7.00030E+00     1.6120E-01  1.5262E-02 -1.0281E+00  1.0407E+00
ac ID =   33377                -1.0632E+00  5.8577E+00 -1.3234E-01  5.9549E+00
                               -3.7327E-01  1.1318E+01 -4.7607E+01  2.5147E+03

           1    7.10029E+00     1.6389E-01  4.5797E-04 -1.0577E+00  1.0703E+00
ac ID =   33377                -2.8745E-01  5.8283E+00 -3.1022E-03  5.8354E+00
                               -3.7299E-01  1.1367E+01 -4.7625E+01  2.5147E+03

           1    7.20028E+00     1.5414E-01  3.4169E-03 -1.1545E+00  1.1647E+00
ac ID =   33377                -5.2524E-01  5.8886E+00  1.2112E-01  5.9133E+00
                               -3.7271E-01  1.1417E+01 -4.7644E+01  2.5147E+03

           1    7.30027E+00     1.7863E-01  1.4466E-02 -1.2428E+00  1.2556E+00
ac ID =   33377                -7.1630E-01  6.6735E+00  3.3681E-02  6.7119E+00
                               -3.7246E-01  1.1470E+01 -4.7663E+01  2.5147E+03

           1    7.40026E+00     1.8499E-01  3.8117E-03 -1.2841E+00  1.2973E+00
ac ID =   33377                -3.6286E-01  7.1087E+00  1.9083E-02  7.1180E+00
                               -3.7213E-01  1.1526E+01 -4.7682E+01  2.5147E+03

           1    7.50025E+00     1.8530E-01 -1.0878E-02 -1.2997E+00  1.3129E+00
ac ID =   33377                 2.2406E-02  7.3534E+00 -2.2730E-03  7.3534E+00
                               -3.7177E-01  1.1584E+01 -4.7701E+01  2.5147E+03

           1    7.60024E+00     2.0145E-01  1.9245E-02 -1.3469E+00  1.3620E+00
ac ID =   33377                -7.6147E-01  7.6795E+00  1.0164E-01  7.7178E+00
                               -3.7141E-01  1.1645E+01 -4.7720E+01  2.5147E+03

           1    7.70023E+00     1.9693E-01  8.0879E-03 -1.4063E+00  1.4200E+00
ac ID =   33377                -6.3461E-01  7.8066E+00 -2.9693E-02  7.8325E+00
                               -3.7102E-01  1.1708E+01 -4.7740E+01  2.5147E+03

           1    7.80022E+00     1.9582E-01  4.1796E-03 -1.4514E+00  1.4645E+00
ac ID =   33377                -6.0384E-01  7.6996E+00 -1.7315E-01  7.7252E+00
                               -3.7056E-01  1.1774E+01 -4.7759E+01  2.5147E+03

           1    7.90021E+00     2.0263E-01  4.9727E-03 -1.4816E+00  1.4954E+00
ac ID =   33377                -7.5879E-01  7.9425E+00 -2.8354E-01  7.9837E+00
                               -3.7009E-01  1.1842E+01 -4.7779E+01  2.5147E+03

           1    8.00020E+00     2.1315E-01  2.4681E-02 -1.5438E+00  1.5586E+00
ac ID =   33377                -1.1668E+00  8.5217E+00 -1.5784E-02  8.6013E+00
                               -3.6960E-01  1.1913E+01 -4.7798E+01  2.5147E+03

           1    8.10019E+00     2.1992E-01 -1.8858E-03 -1.6475E+00  1.6622E+00
ac ID =   33377                -3.6097E-01  9.0513E+00  7.8778E-02  9.0588E+00
                               -3.6908E-01  1.1986E+01 -4.7817E+01  2.5147E+03

           1    8.20018E+00     2.2428E-01  2.2588E-03 -1.7042E+00  1.7189E+00
ac ID =   33377                -6.0315E-01  9.4954E+00  5.2826E-02  9.5147E+00
                               -3.6851E-01  1.2062E+01 -4.7836E+01  2.5147E+03

           1    8.30017E+00     2.4058E-01  1.5986E-02 -1.7491E+00  1.7656E+00
ac ID =   33377                -7.4361E-01  9.8738E+00 -1.5924E-01  9.9031E+00
                               -3.6793E-01  1.2140E+01 -4.7854E+01  2.5147E+03

           1    8.40016E+00     2.4648E-01  9.4328E-03 -1.8073E+00  1.8240E+00
ac ID =   33377                -4.7112E-01  1.0262E+01 -1.2280E-01  1.0273E+01
                               -3.6728E-01  1.2221E+01 -4.7873E+01  2.5147E+03

           1    8.50015E+00     2.4500E-01 -4.2947E-03 -1.8691E+00  1.8851E+00
ac ID =   33377                -3.6398E-01  1.0577E+01  8.4880E-02  1.0583E+01
                               -3.6653E-01  1.2304E+01 -4.7890E+01  2.5147E+03

           1    8.60014E+00     2.4176E-01  2.8086E-03 -1.9416E+00  1.9566E+00
ac ID =   33377                -7.0436E-01  1.0690E+01  1.9071E-01  1.0715E+01
                               -3.6580E-01  1.2389E+01 -4.7907E+01  2.5147E+03

           1    8.70013E+00     2.5041E-01  1.9588E-02 -2.0057E+00  2.0214E+00
ac ID =   33377                -1.1142E+00  1.0948E+01  2.1404E-02  1.1004E+01
                               -3.6508E-01  1.2477E+01 -4.7924E+01  2.5147E+03

           1    8.80012E+00     2.6575E-01  1.4803E-02 -2.0756E+00  2.0926E+00
ac ID =   33377                -9.8438E-01  1.1255E+01 -9.4350E-02  1.1298E+01
                               -3.6427E-01  1.2567E+01 -4.7939E+01  2.5147E+03

           1    8.90011E+00     2.6316E-01  5.3206E-03 -2.1425E+00  2.1586E+00
ac ID =   33377                -7.6220E-01  1.1586E+01  1.1536E-01  1.1611E+01
                               -3.6334E-01  1.2659E+01 -4.7954E+01  2.5147E+03

           1    9.00010E+00     2.8433E-01  1.1052E-02 -2.2187E+00  2.2368E+00
ac ID =   33377                -9.3526E-01  1.2456E+01  2.3669E-01  1.2493E+01
                               -3.6240E-01  1.2754E+01 -4.7968E+01  2.5147E+03

           1    9.10009E+00     2.8940E-01  1.2932E-02 -2.2682E+00  2.2866E+00
ac ID =   33377                -7.6487E-01  1.3003E+01  2.4334E-01  1.3028E+01
                               -3.6143E-01  1.2850E+01 -4.7981E+01  2.5147E+03

           1    9.20008E+00     2.9882E-01 -1.5188E-04 -2.3243E+00  2.3434E+00
ac ID =   33377                -5.3121E-01  1.3219E+01  1.8282E-02  1.3230E+01
                               -3.6037E-01  1.2949E+01 -4.7993E+01  2.5147E+03

           1    9.30007E+00     2.9697E-01  1.0352E-02 -2.3970E+00  2.4154E+00
ac ID =   33377                -5.5675E-01  1.3401E+01 -1.9371E-01  1.3414E+01
                               -3.5925E-01  1.3050E+01 -4.8004E+01  2.5147E+03

           1    9.40006E+00     3.0034E-01  4.1887E-03 -2.4499E+00  2.4683E+00
ac ID =   33377                -7.6571E-01  1.3744E+01 -3.6463E-01  1.3771E+01
                               -3.5806E-01  1.3153E+01 -4.8014E+01  2.5147E+03

           1    9.50005E+00     3.1444E-01  1.6666E-02 -2.5074E+00  2.5271E+00
ac ID =   33377                -7.0511E-01  1.4104E+01 -3.2349E-01  1.4126E+01
                               -3.5681E-01  1.3258E+01 -4.8022E+01  2.5147E+03

           1    9.60004E+00     3.0349E-01  2.1518E-03 -2.5547E+00  2.5726E+00
ac ID =   33377                -8.5608E-01  1.4534E+01 -4.2244E-02  1.4559E+01
                               -3.5540E-01  1.3365E+01 -4.8029E+01  2.5147E+03

           1    9.70003E+00     3.2145E-01  1.7749E-02 -2.6041E+00  2.6239E+00
ac ID =   33377                -1.1149E+00  1.5076E+01  7.7761E-02  1.5117E+01
                               -3.5396E-01  1.3474E+01 -4.8034E+01  2.5147E+03

           1    9.80002E+00     3.3254E-01  1.1478E-02 -2.6558E+00  2.6766E+00
ac ID =   33377                -8.9789E-01  1.5463E+01  3.4550E-02  1.5489E+01
                               -3.5246E-01  1.3584E+01 -4.8038E+01  2.5147E+03

           1    9.90001E+00     3.4106E-01 -4.4903E-03 -2.7040E+00  2.7254E+00
ac ID =   33377                -6.6690E-01  1.6001E+01  6.5196E-02  1.6015E+01
                               -3.5082E-01  1.3697E+01 -4.8039E+01  2.5147E+03

           1    1.00005E+01     3.3595E-01  2.9591E-03 -2.7573E+00  2.7777E+00
ac ID =   33377                -6.3071E-01  1.6200E+01  7.7443E-02  1.6213E+01
                               -3.4918E-01  1.3811E+01 -4.8039E+01  2.5147E+03

           1    1.01005E+01     3.4772E-01  3.6598E-03 -2.8313E+00  2.8525E+00
ac ID =   33377                -6.3706E-01  1.6605E+01  2.7639E-01  1.6619E+01
                               -3.4746E-01  1.3926E+01 -4.8037E+01  2.5147E+03

           1    1.02005E+01     3.6489E-01  1.7649E-04 -2.9004E+00  2.9232E+00
ac ID =   33377                -3.7806E-01  1.7260E+01  2.5418E-01  1.7266E+01
                               -3.4566E-01  1.4043E+01 -4.8033E+01  2.5147E+03

           1    1.03005E+01     3.5450E-01 -5.5841E-03 -2.9392E+00  2.9605E+00
ac ID =   33377                -5.2937E-01  1.7408E+01 -3.6722E-02  1.7416E+01
                               -3.4376E-01  1.4161E+01 -4.8026E+01  2.5147E+03

           1    1.04005E+01     3.4693E-01  1.5314E-02 -2.9780E+00  2.9982E+00
ac ID =   33377                -8.2854E-01  1.7433E+01 -3.6628E-01  1.7456E+01
                               -3.4182E-01  1.4281E+01 -4.8017E+01  2.5147E+03

           1    1.05004E+01     3.6859E-01  1.7691E-03 -3.0033E+00  3.0258E+00
ac ID =   33377                -9.5774E-01  1.8168E+01 -7.9512E-02  1.8193E+01
                               -3.3977E-01  1.4401E+01 -4.8005E+01  2.5147E+03

           1    1.06004E+01     3.7481E-01  1.1542E-02 -3.0327E+00  3.0558E+00
ac ID =   33377                -8.4532E-01  1.8388E+01  4.3278E-01  1.8413E+01
                               -3.3763E-01  1.4522E+01 -4.7991E+01  2.5147E+03

           1    1.07004E+01     3.5660E-01  7.6938E-03 -3.0536E+00  3.0744E+00
ac ID =   33377                -1.0773E+00  1.8168E+01  4.4408E-01  1.8205E+01
                               -3.3537E-01  1.4645E+01 -4.7974E+01  2.5147E+03

           1    1.08004E+01     3.6780E-01  1.2454E-02 -3.0732E+00  3.0951E+00
ac ID =   33377                -7.5308E-01  1.8519E+01  1.5093E-01  1.8535E+01
                               -3.3305E-01  1.4767E+01 -4.7953E+01  2.5147E+03

           1    1.09004E+01     3.8641E-01  1.1528E-04 -3.1489E+00  3.1726E+00
ac ID =   33377                -8.4683E-01  1.8946E+01 -9.5766E-02  1.8965E+01
                               -3.3057E-01  1.4891E+01 -4.7930E+01  2.5147E+03

           1    1.10004E+01     3.8124E-01  7.3828E-03 -3.1920E+00  3.2146E+00
ac ID =   33377                -4.9164E-01  1.9186E+01  3.4081E-02  1.9193E+01
                               -3.2802E-01  1.5015E+01 -4.7903E+01  2.5147E+03

           1    1.11004E+01     3.9690E-01  5.7239E-03 -3.2281E+00  3.2524E+00
ac ID =   33377                -4.4623E-01  1.9865E+01  1.7937E-01  1.9871E+01
                               -3.2536E-01  1.5140E+01 -4.7874E+01  2.5147E+03

           1    1.12004E+01     4.1774E-01  9.5153E-03 -3.2387E+00  3.2656E+00
ac ID =   33377                -5.7226E-01  2.0680E+01  1.4256E-01  2.0688E+01
                               -3.2259E-01  1.5266E+01 -4.7842E+01  2.5147E+03

           1    1.13004E+01     4.0784E-01 -5.3893E-04 -3.2463E+00  3.2718E+00
ac ID =   33377                -6.6413E-01  2.0498E+01  2.5913E-01  2.0511E+01
                               -3.1968E-01  1.5393E+01 -4.7806E+01  2.5147E+03

           1    1.14004E+01     4.1361E-01  1.2030E-02 -3.2906E+00  3.3165E+00
ac ID =   33377                -7.8526E-01  2.0956E+01 -3.9873E-02  2.0971E+01
                               -3.1674E-01  1.5520E+01 -4.7768E+01  2.5147E+03

           1    1.15003E+01     4.2752E-01  1.6483E-02 -3.2694E+00  3.2973E+00
ac ID =   33377                -9.7751E-01  2.1067E+01  2.0067E-01  2.1090E+01
                               -3.1366E-01  1.5648E+01 -4.7727E+01  2.5147E+03

           1    1.16003E+01     4.2378E-01  1.1994E-02 -3.2855E+00  3.3128E+00
ac ID =   33377                -8.3572E-01  2.1207E+01  1.5275E-01  2.1224E+01
                               -3.1054E-01  1.5776E+01 -4.7682E+01  2.5147E+03

           1    1.17003E+01     4.2906E-01  1.2714E-02 -3.3461E+00  3.3735E+00
ac ID =   33377                -9.8285E-01  2.1784E+01  1.2141E-02  2.1806E+01
                               -3.0734E-01  1.5905E+01 -4.7635E+01  2.5147E+03

           1    1.18003E+01     4.4046E-01  1.1219E-02 -3.3542E+00  3.3831E+00
ac ID =   33377                -8.4299E-01  2.2192E+01  3.8453E-02  2.2208E+01
                               -3.0404E-01  1.6035E+01 -4.7584E+01  2.5147E+03

           1    1.19003E+01     4.3829E-01 -3.4490E-05 -3.3432E+00  3.3718E+00
ac ID =   33377                -2.4957E-01  2.2518E+01 -3.7327E-01  2.2522E+01
                               -3.0067E-01  1.6165E+01 -4.7530E+01  2.5147E+03

           1    1.20003E+01     4.4909E-01  1.1139E-02 -3.3462E+00  3.3763E+00
ac ID =   33377                -6.6549E-01  2.2834E+01 -2.8442E-01  2.2845E+01
                               -2.9722E-01  1.6296E+01 -4.7474E+01  2.5147E+03

           1    1.21003E+01     4.5340E-01  7.5737E-03 -3.3373E+00  3.3680E+00
ac ID =   33377                -5.8910E-01  2.3277E+01 -3.9951E-01  2.3288E+01
                               -2.9368E-01  1.6427E+01 -4.7413E+01  2.5147E+03

           1    1.22003E+01     4.4486E-01  8.1943E-03 -3.3139E+00  3.3436E+00
ac ID =   33377                -5.4806E-01  2.3132E+01 -4.7248E-01  2.3143E+01
                               -2.9006E-01  1.6558E+01 -4.7350E+01  2.5147E+03

           1    1.23003E+01     4.4088E-01  7.7279E-03 -3.2835E+00  3.3130E+00
ac ID =   33377                -7.2674E-01  2.2998E+01  1.1552E-02  2.3009E+01
                               -2.8635E-01  1.6690E+01 -4.7284E+01  2.5147E+03

           1    1.24003E+01     4.5593E-01  1.5526E-02 -3.2433E+00  3.2753E+00
ac ID =   33377                -1.0773E+00  2.3113E+01  5.5479E-02  2.3138E+01
                               -2.8265E-01  1.6822E+01 -4.7214E+01  2.5147E+03

           1    1.25002E+01     4.4717E-01  1.3055E-02 -3.2385E+00  3.2693E+00
ac ID =   33377                -9.1365E-01  2.3013E+01 -2.4162E-01  2.3032E+01
                               -2.7888E-01  1.6954E+01 -4.7141E+01  2.5147E+03

           1    1.26002E+01     4.4843E-01  6.2980E-03 -3.2087E+00  3.2399E+00
ac ID =   33377                -1.0042E+00  2.3155E+01  1.5250E-01  2.3178E+01
                               -2.7502E-01  1.7086E+01 -4.7065E+01  2.5147E+03

           1    1.27002E+01     4.1250E-01  7.0407E-04 -3.1116E+00  3.1388E+00
ac ID =   33377                -7.9714E-01  2.2953E+01  3.5005E-01  2.2969E+01
                               -2.7120E-01  1.7218E+01 -4.6985E+01  2.5147E+03

           1    1.28002E+01     4.3492E-01 -1.4497E-02 -3.0134E+00  3.0446E+00
ac ID =   33377                 2.3320E-01  2.2569E+01 -8.9121E-02  2.2570E+01
                               -2.6744E-01  1.7349E+01 -4.6902E+01  2.5147E+03

           1    1.29002E+01     3.9432E-01  2.0254E-02 -3.0000E+00  3.0259E+00
ac ID =   33377                -7.4930E-01  2.2636E+01 -4.7108E-01  2.2653E+01
                               -2.6362E-01  1.7480E+01 -4.6814E+01  2.5147E+03

           1    1.30002E+01     4.2636E-01  7.2035E-03 -2.9678E+00  2.9983E+00
ac ID =   33377                -7.7531E-01  2.1999E+01 -6.7688E-01  2.2023E+01
                               -2.5972E-01  1.7609E+01 -4.6723E+01  2.5147E+03

           1    1.31002E+01     3.8624E-01 -6.0653E-03 -2.9131E+00  2.9386E+00
ac ID =   33377                -6.4756E-02  2.0872E+01 -1.5129E-01  2.0873E+01
                               -2.5586E-01  1.7738E+01 -4.6628E+01  2.5147E+03

           1    1.32002E+01     3.8718E-01  7.5679E-03 -2.7987E+00  2.8253E+00
ac ID =   33377                -7.5901E-01  2.1352E+01 -1.0719E-01  2.1366E+01
                               -2.5186E-01  1.7866E+01 -4.6529E+01  2.5147E+03

           1    1.33002E+01     3.8813E-01  3.8369E-02 -2.7345E+00  2.7622E+00
ac ID =   33377                -1.9484E+00  2.0257E+01  1.2718E-01  2.0351E+01
                               -2.4794E-01  1.7992E+01 -4.6426E+01  2.5147E+03

           1    1.34002E+01     3.9174E-01 -2.0024E-03 -2.7520E+00  2.7798E+00
ac ID =   33377                -1.8268E-01  2.0686E+01 -5.0856E-01  2.0693E+01
                               -2.4402E-01  1.8117E+01 -4.6319E+01  2.5147E+03

           1    1.35001E+01     3.8304E-01 -1.7570E-02 -2.6880E+00  2.7152E+00
ac ID =   33377                -4.8910E-01  1.9769E+01 -6.6333E-01  1.9786E+01
                               -2.3994E-01  1.8242E+01 -4.6209E+01  2.5147E+03

           1    1.36001E+01     3.8094E-01  3.8617E-02 -2.5748E+00  2.6031E+00
ac ID =   33377                -1.2475E+00  1.9858E+01 -4.2561E-01  1.9902E+01
                               -2.3596E-01  1.8365E+01 -4.6095E+01  2.5147E+03

           1    1.37001E+01     3.8408E-01  2.0701E-02 -2.4956E+00  2.5251E+00
ac ID =   33377                -4.4230E-01  1.8871E+01 -1.2543E-01  1.8877E+01
                               -2.3197E-01  1.8488E+01 -4.5978E+01  2.5147E+03

           1    1.38001E+01     3.5848E-01 -3.6716E-02 -2.4813E+00  2.5073E+00
ac ID =   33377                 8.7289E-01  1.8702E+01  6.4464E-02  1.8723E+01
                               -2.2783E-01  1.8610E+01 -4.5857E+01  2.5147E+03

           1    1.39001E+01     3.6669E-01  5.7485E-03 -2.3899E+00  2.4178E+00
ac ID =   33377                -9.3109E-01  1.8056E+01 -2.7198E-02  1.8080E+01
                               -2.2365E-01  1.8731E+01 -4.5734E+01  2.5147E+03

           1    1.40001E+01     3.6724E-01  5.1606E-02 -2.3101E+00  2.3397E+00
ac ID =   33377                -1.0729E+00  1.7408E+01 -2.5639E-01  1.7443E+01
                               -2.1961E-01  1.8851E+01 -4.5607E+01  2.5147E+03

           1    1.41001E+01     3.5829E-01 -1.9358E-02 -2.2325E+00  2.2612E+00
ac ID =   33377                -1.3010E-01  1.7710E+01  2.9400E-01  1.7713E+01
                               -2.1532E-01  1.8972E+01 -4.5478E+01  2.5147E+03

           1    1.42001E+01     3.6115E-01 -5.3404E-04 -2.1027E+00  2.1335E+00
ac ID =   33377                -5.4780E-01  1.6482E+01 -7.4072E-02  1.6492E+01
                               -2.1104E-01  1.9091E+01 -4.5346E+01  2.5147E+03

           1    1.43001E+01     3.3708E-01  3.6400E-02 -2.0709E+00  2.0985E+00
ac ID =   33377                -1.4808E+00  1.6216E+01 -3.8008E-01  1.6288E+01
                               -2.0691E-01  1.9210E+01 -4.5211E+01  2.5147E+03

           1    1.44001E+01     3.8883E-01  2.3345E-02 -1.9906E+00  2.0283E+00
ac ID =   33377                -5.8771E-01  1.6075E+01 -3.7758E-02  1.6085E+01
                               -2.0273E-01  1.9329E+01 -4.5074E+01  2.5147E+03

           1    1.45000E+01     3.2975E-01 -1.4461E-02 -1.8509E+00  1.8801E+00
ac ID =   33377                 2.3598E-01  1.4214E+01  7.2340E-02  1.4217E+01
                               -1.9832E-01  1.9448E+01 -4.4936E+01  2.5147E+03

           1    1.46000E+01     3.1830E-01  1.0948E-02 -1.7670E+00  1.7955E+00
ac ID =   33377                -6.8369E-02  1.3756E+01 -9.9090E-02  1.3756E+01
                               -1.9412E-01  1.9566E+01 -4.4795E+01  2.5147E+03

           1    1.47000E+01     3.4214E-01  3.3096E-02 -1.7498E+00  1.7832E+00
ac ID =   33377                -7.8520E-01  1.3843E+01 -2.2915E-01  1.3867E+01
                               -1.8991E-01  1.9685E+01 -4.4652E+01  2.5147E+03

           1    1.48005E+01     3.1030E-01 -2.1536E-02 -1.6492E+00  1.6783E+00
ac ID =   33377                 3.4058E-01  1.2555E+01 -5.7549E-02  1.2560E+01
                               -1.8541E-01  1.9804E+01 -4.4507E+01  2.5147E+03

           1    1.49005E+01     2.9196E-01  2.0066E-03 -1.5346E+00  1.5622E+00
ac ID =   33377                 1.4163E-01  1.1278E+01  2.2168E-01  1.1281E+01
                               -1.8110E-01  1.9923E+01 -4.4362E+01  2.5147E+03

           1    1.50005E+01     3.3012E-01  1.3888E-02 -1.4266E+00  1.4644E+00
ac ID =   33377                -7.3255E-01  1.1823E+01 -1.5155E-01  1.1846E+01
                               -1.7677E-01  2.0043E+01 -4.4215E+01  2.5147E+03

           1    1.51005E+01     2.8066E-01  2.4191E-02 -1.3568E+00  1.3857E+00
ac ID =   33377                -7.7612E-01  9.9983E+00 -3.5953E-01  1.0035E+01
                               -1.7238E-01  2.0162E+01 -4.4067E+01  2.5147E+03

           1    1.52005E+01     2.4223E-01 -1.5923E-02 -1.2827E+00  1.3055E+00
ac ID =   33377                 1.5578E-01  9.1529E+00 -1.2896E-01  9.1552E+00
                               -1.6795E-01  2.0282E+01 -4.3918E+01  2.5147E+03

           1    1.53005E+01     2.7752E-01 -1.8152E-02 -1.1248E+00  1.1587E+00
ac ID =   33377                 2.0122E-01  8.7851E+00  2.8353E-01  8.7920E+00
                               -1.6362E-01  2.0402E+01 -4.3769E+01  2.5147E+03

           1    1.54005E+01     2.5474E-01  4.1016E-02 -1.0655E+00  1.0963E+00
ac ID =   33377                -6.8352E-01  7.9166E+00  3.6903E-01  7.9546E+00
                               -1.5935E-01  2.0522E+01 -4.3618E+01  2.5147E+03

           1    1.55004E+01     2.0082E-01 -8.4485E-03 -9.8027E-01  1.0007E+00
ac ID =   33377                 3.3904E-01  6.4717E+00  1.7465E-01  6.4830E+00
                               -1.5499E-01  2.0642E+01 -4.3466E+01  2.5147E+03

           1    1.56004E+01     2.4108E-01 -3.5011E-02 -9.2560E-01  9.5712E-01
ac ID =   33377                 1.0460E+00  6.7351E+00 -2.9358E-01  6.8221E+00
                               -1.5066E-01  2.0763E+01 -4.3314E+01  2.5147E+03

           1    1.57004E+01     1.9716E-01  1.1722E-02 -8.0669E-01  8.3052E-01
ac ID =   33377                -3.0249E-01  5.8570E+00 -8.5038E-02  5.8655E+00
                               -1.4638E-01  2.0885E+01 -4.3162E+01  2.5147E+03

           1    1.58004E+01     1.6954E-01  3.4802E-02 -6.8889E-01  7.1030E-01
ac ID =   33377                -7.9382E-01  4.4226E+00 -4.5486E-02  4.4935E+00
                               -1.4216E-01  2.1006E+01 -4.3009E+01  2.5147E+03

           1    1.59004E+01     1.6239E-01 -2.6992E-02 -6.2430E-01  6.4564E-01
ac ID =   33377                 7.3372E-01  4.9231E+00  1.3303E-01  4.9792E+00
                               -1.3788E-01  2.1129E+01 -4.2856E+01  2.5147E+03

           1    1.60004E+01     1.6599E-01 -4.9461E-03 -5.0468E-01  5.3130E-01
ac ID =   33377                -1.4168E-01  3.9108E+00  2.3424E-01  3.9204E+00
                               -1.3363E-01  2.1251E+01 -4.2702E+01  2.5147E+03

           1    1.61004E+01     1.2088E-01  3.8384E-02 -4.4645E-01  4.6411E-01
ac ID =   33377                -8.6591E-01  3.4033E+00 -2.6267E-01  3.5216E+00
                               -1.2963E-01  2.1375E+01 -4.2549E+01  2.5147E+03

           1    1.62004E+01     1.6126E-01 -9.1956E-06 -3.2283E-01  3.6087E-01
ac ID =   33377                -5.3904E-02  4.2459E+00  4.7689E-01  4.2730E+00
                               -1.2538E-01  2.1498E+01 -4.2396E+01  2.5147E+03

           1    1.63004E+01     1.1742E-01 -4.2797E-02 -2.3656E-01  2.6754E-01
ac ID =   33377                 1.4795E+00  3.6480E+00  1.4124E-01  3.9391E+00
                               -1.2126E-01  2.1622E+01 -4.2243E+01  2.5147E+03

           1    1.64004E+01     1.5038E-01  3.3971E-02 -2.3430E-01  2.8047E-01
ac ID =   33377                -7.2827E-01  5.2146E+00  9.3154E-02  5.2661E+00
                               -1.1725E-01  2.1746E+01 -4.2091E+01  2.5147E+03

           1    1.65003E+01     1.5206E-01  1.2946E-02 -1.3080E-01  2.0100E-01
ac ID =   33377                -2.8155E-01  5.4097E+00  1.1777E-01  5.4183E+00
                               -1.1315E-01  2.1871E+01 -4.1939E+01  2.5147E+03

           1    1.66003E+01     1.2335E-01 -2.7077E-02 -2.6925E-02  1.2913E-01
ac ID =   33377                 1.1398E+00  5.5695E+00 -4.9021E-01  5.7061E+00
                               -1.0908E-01  2.1996E+01 -4.1787E+01  2.5147E+03

           1    1.67003E+01     1.5571E-01 -4.5027E-03  4.5087E-02  1.6217E-01
ac ID =   33377                -4.5977E-02  6.2643E+00 -1.0951E-01  6.2654E+00
                               -1.0496E-01  2.2121E+01 -4.1637E+01  2.5147E+03

           1    1.68003E+01     1.4785E-01  3.4783E-02  1.0903E-01  1.8696E-01
ac ID =   33377                -7.1324E-01  6.3413E+00  1.1538E-01  6.3823E+00
                               -1.0103E-01  2.2247E+01 -4.1487E+01  2.5147E+03

           1    1.69003E+01     1.4524E-01  5.7293E-03  1.7549E-01  2.2787E-01
ac ID =   33377                 6.0738E-02  6.8312E+00  2.4313E-01  6.8358E+00
                               -9.7022E-02  2.2372E+01 -4.1338E+01  2.5147E+03

           1    1.70003E+01     1.4585E-01 -4.2354E-02  2.4797E-01  2.9078E-01
ac ID =   33377                 8.5264E-01  6.8238E+00 -2.4512E-01  6.8812E+00
                               -9.2925E-02  2.2498E+01 -4.1190E+01  2.5147E+03

           1    1.71003E+01     1.5547E-01  3.9821E-02  3.4094E-01  3.7683E-01
ac ID =   33377                -7.9793E-01  7.4986E+00 -2.0270E-01  7.5437E+00
                               -8.9079E-02  2.2625E+01 -4.1044E+01  2.5147E+03

           1    1.72003E+01     1.6812E-01  1.9266E-02  3.9315E-01  4.2802E-01
ac ID =   33377                -2.1861E-01  7.4683E+00 -3.0237E-02  7.4716E+00
                               -8.5160E-02  2.2751E+01 -4.0899E+01  2.5147E+03

           1    1.73003E+01     1.2006E-01 -4.6692E-02  4.3453E-01  4.5322E-01
ac ID =   33377                 1.2516E+00  7.3039E+00 -6.3002E-02  7.4106E+00
                               -8.1204E-02  2.2878E+01 -4.0756E+01  2.5147E+03

           1    1.74003E+01     1.4954E-01  2.9943E-02  4.9656E-01  5.1945E-01
ac ID =   33377                -4.9288E-01  7.3849E+00  1.4550E-01  7.4027E+00
                               -7.7356E-02  2.3005E+01 -4.0615E+01  2.5147E+03

           1    1.75002E+01     1.5545E-01  1.8483E-02  5.9273E-01  6.1306E-01
ac ID =   33377                -5.1883E-01  7.3962E+00 -6.2661E-02  7.4146E+00
                               -7.3502E-02  2.3132E+01 -4.0475E+01  2.5147E+03

           1    1.76002E+01     1.2713E-01 -2.1828E-02  6.4369E-01  6.5648E-01
ac ID =   33377                 8.7995E-01  7.0431E+00  1.1492E-01  7.0988E+00
                               -6.9659E-02  2.3259E+01 -4.0338E+01  2.5147E+03

           1    1.77002E+01     1.0045E-01 -3.7438E-03  6.7160E-01  6.7908E-01
ac ID =   33377                -1.8807E-02  6.1696E+00  1.4317E-01  6.1713E+00
                               -6.5825E-02  2.3387E+01 -4.0202E+01  2.5147E+03

           1    1.78002E+01     1.3539E-01  2.7181E-02  7.4174E-01  7.5449E-01
ac ID =   33377                -4.9037E-01  6.4577E+00  3.4414E-02  6.4764E+00
                               -6.2101E-02  2.3516E+01 -4.0069E+01  2.5147E+03

           1    1.79002E+01     1.0307E-01  1.1704E-03  8.1459E-01  8.2109E-01
ac ID =   33377                -2.9910E-01  5.4578E+00  6.6137E-02  5.4663E+00
                               -5.8350E-02  2.3645E+01 -3.9938E+01  2.5147E+03

           1    1.80002E+01     6.7454E-02 -1.7977E-02  8.5557E-01  8.5841E-01
ac ID =   33377                 6.7646E-01  4.5357E+00 -7.2287E-03  4.5859E+00
                               -5.4656E-02  2.3774E+01 -3.9809E+01  2.5147E+03

           1    1.81002E+01     1.2396E-01  1.2696E-02  8.7487E-01  8.8370E-01
ac ID =   33377                -2.4713E-01  5.1882E+00 -1.7204E-01  5.1970E+00
                               -5.1003E-02  2.3904E+01 -3.9682E+01  2.5147E+03

           1    1.82002E+01     6.0808E-02  2.4478E-02  9.0580E-01  9.0817E-01
ac ID =   33377                -3.2414E-01  3.6638E+00 -8.1099E-02  3.6790E+00
                               -4.7418E-02  2.4034E+01 -3.9559E+01  2.5147E+03

           1    1.83002E+01     5.4838E-02 -1.7792E-02  9.5818E-01  9.5991E-01
ac ID =   33377                 7.6996E-01  3.1408E+00 -7.1535E-02  3.2346E+00
                               -4.3846E-02  2.4165E+01 -3.9437E+01  2.5147E+03

           1    1.84002E+01     5.4398E-02 -9.1008E-03  1.0009E+00  1.0024E+00
ac ID =   33377                 3.7504E-01  2.4978E+00 -6.0966E-02  2.5265E+00
                               -4.0256E-02  2.4297E+01 -3.9319E+01  2.5147E+03

           1    1.85001E+01     6.7569E-02  2.4610E-02  1.0099E+00  1.0125E+00
ac ID =   33377                -4.3661E-01  2.3573E+00 -1.2060E-01  2.4004E+00
                               -3.6757E-02  2.4429E+01 -3.9203E+01  2.5147E+03

           1    1.86001E+01     3.1662E-02 -8.6110E-03  1.0449E+00  1.0455E+00
ac ID =   33377                 5.1404E-01  1.3355E+00 -1.4026E-01  1.4379E+00
                               -3.3304E-02  2.4562E+01 -3.9089E+01  2.5147E+03

           1    1.87001E+01     2.0819E-02  4.5297E-03  1.0839E+00  1.0841E+00
ac ID =   33377                -7.6761E-02  6.9873E-01  8.7096E-02  7.0831E-01
                               -2.9826E-02  2.4696E+01 -3.8979E+01  2.5147E+03

           1    1.88001E+01     4.9975E-02 -1.4856E-02  1.1098E+00  1.1110E+00
ac ID =   33377                 3.8624E-01  7.6213E-01 -1.3112E-01  8.6442E-01
                               -2.6392E-02  2.4831E+01 -3.8871E+01  2.5147E+03

           1    1.89001E+01     1.1027E-02  3.7318E-02  1.1233E+00  1.1240E+00
ac ID =   33377                -8.0369E-01 -4.1203E-01  5.8993E-02  9.0508E-01
                               -2.3070E-02  2.4966E+01 -3.8765E+01  2.5147E+03

           1    1.90001E+01    -4.8879E-03 -1.8204E-02  1.1447E+00  1.1448E+00
ac ID =   33377                 7.8170E-01 -8.2056E-01 -2.3302E-02  1.1335E+00
                               -1.9755E-02  2.5102E+01 -3.8663E+01  2.5147E+03

           1    1.91001E+01     3.1942E-02 -7.4219E-03  1.1588E+00  1.1592E+00
ac ID =   33377                 3.0495E-01 -5.9336E-01 -8.0915E-02  6.7203E-01
                               -1.6408E-02  2.5238E+01 -3.8563E+01  2.5147E+03

           1    1.92001E+01     7.2594E-03  1.9184E-02  1.1994E+00  1.1996E+00
ac ID =   33377                 5.5965E-03 -1.2531E+00 -1.5375E-01  1.2625E+00
                               -1.3206E-02  2.5375E+01 -3.8467E+01  2.5147E+03

           1    1.93001E+01    -6.4679E-03 -1.6338E-03  1.2306E+00  1.2306E+00
ac ID =   33377                 2.6686E-01 -2.0063E+00 -1.3658E-01  2.0286E+00
                               -9.9753E-03  2.5514E+01 -3.8373E+01  2.5147E+03

           1    1.94001E+01     1.4002E-03 -1.3617E-02  1.2222E+00  1.2222E+00
ac ID =   33377                 7.2850E-01 -2.3538E+00 -4.0482E-02  2.4643E+00
                               -6.7791E-03  2.5652E+01 -3.8282E+01  2.5147E+03

           1    1.95000E+01     1.6083E-02 -4.0184E-03  1.2216E+00  1.2217E+00
ac ID =   33377                 1.3573E-01 -2.6155E+00 -7.7755E-02  2.6202E+00
                               -3.6119E-03  2.5792E+01 -3.8194E+01  2.5147E+03

           1    1.96000E+01    -2.6651E-02  3.1590E-02  1.2587E+00  1.2594E+00
ac ID =   33377                -3.6619E-01 -3.6287E+00  4.5706E-02  3.6474E+00
                               -5.2202E-04  2.5933E+01 -3.8109E+01  2.5147E+03

           1    1.97005E+01    -6.6917E-03 -1.3608E-02  1.2613E+00  1.2614E+00
ac ID =   33377                 4.8374E-01 -3.4562E+00  2.1627E-01  3.4965E+00
                                2.5656E-03  2.6075E+01 -3.8027E+01  2.5147E+03

           1    1.98005E+01    -3.1667E-03 -7.1242E-03  1.2494E+00  1.2494E+00
ac ID =   33377                 5.9457E-01 -3.9200E+00 -5.3904E-02  3.9652E+00
                                5.6144E-03  2.6217E+01 -3.7947E+01  2.5147E+03

           1    1.99005E+01    -1.5910E-02  2.2336E-02  1.2644E+00  1.2647E+00
ac ID =   33377                -6.6552E-01 -4.3952E+00 -4.4740E-02  4.4455E+00
                                8.6451E-03  2.6360E+01 -3.7871E+01  2.5147E+03

           1    2.00005E+01    -2.0419E-03  5.4830E-03  1.2628E+00  1.2628E+00
ac ID =   33377                 5.6935E-01 -4.5974E+00 -2.3661E-01  4.6386E+00
                                1.1495E-02  2.6503E+01 -3.7798E+01  2.5147E+03

           1    2.01005E+01    -2.0590E-02 -2.3146E-02  1.2704E+00  1.2708E+00
ac ID =   33377                 8.3162E-01 -5.0666E+00  6.1559E-02  5.1348E+00
                                1.4501E-02  2.6648E+01 -3.7728E+01  2.5147E+03

           1    2.02005E+01    -7.2294E-03  7.9720E-03  1.2324E+00  1.2324E+00
ac ID =   33377                 1.2873E-01 -5.0759E+00  1.5884E-01  5.0800E+00
                                1.7393E-02  2.6793E+01 -3.7661E+01  2.5147E+03

           1    2.03005E+01    -2.2285E-02  2.4577E-02  1.2312E+00  1.2316E+00
ac ID =   33377                -7.0055E-02 -5.6225E+00  1.1707E-01  5.6242E+00
                                2.0186E-02  2.6940E+01 -3.7596E+01  2.5147E+03

           1    2.04005E+01     1.2175E-03 -2.3082E-02  1.2134E+00  1.2137E+00
ac ID =   33377                 1.0051E+00 -5.7236E+00 -2.7820E-02  5.8112E+00
                                2.3058E-02  2.7087E+01 -3.7535E+01  2.5147E+03

           1    2.05004E+01    -8.3807E-03 -3.9322E-03  1.2015E+00  1.2015E+00
ac ID =   33377                 4.3450E-01 -5.9996E+00 -2.0916E-01  6.0189E+00
                                2.5896E-02  2.7234E+01 -3.7476E+01  2.5147E+03

           1    2.06004E+01    -3.7750E-03  3.3674E-02  1.1757E+00  1.1762E+00
ac ID =   33377                -4.1332E-01 -5.9029E+00  8.1046E-02  5.9179E+00
                                2.8618E-02  2.7383E+01 -3.7420E+01  2.5147E+03

           1    2.07004E+01    -1.3716E-02 -7.5625E-03  1.1571E+00  1.1572E+00
ac ID =   33377                 6.8076E-01 -6.1049E+00  1.4874E-01  6.1445E+00
                                3.1347E-02  2.7532E+01 -3.7367E+01  2.5147E+03

           1    2.08004E+01    -2.5880E-03 -1.3489E-02  1.1419E+00  1.1420E+00
ac ID =   33377                 6.4786E-01 -6.1186E+00 -2.7346E-02  6.1529E+00
                                3.4095E-02  2.7682E+01 -3.7317E+01  2.5147E+03

           1    2.09004E+01    -7.6548E-03  1.4302E-02  1.1339E+00  1.1340E+00
ac ID =   33377                -2.4239E-02 -6.5844E+00 -2.8371E-01  6.5905E+00
                                3.6767E-02  2.7833E+01 -3.7269E+01  2.5147E+03

           1    2.10004E+01    -4.1058E-03  9.0906E-03  1.1092E+00  1.1092E+00
ac ID =   33377                 2.5695E-01 -6.8569E+00 -2.1152E-01  6.8650E+00
                                3.9381E-02  2.7984E+01 -3.7224E+01  2.5147E+03

           1    2.11004E+01    -1.0623E-02 -1.7105E-02  1.0690E+00  1.0692E+00
ac ID =   33377                 1.0745E+00 -7.0425E+00  2.0000E-02  7.1240E+00
                                4.2023E-02  2.8136E+01 -3.7181E+01  2.5147E+03

           1    2.12004E+01    -1.6878E-02  4.4923E-03  1.0452E+00  1.0454E+00
ac ID =   33377                 2.4241E-01 -7.4865E+00  1.8194E-01  7.4926E+00
                                4.4659E-02  2.8289E+01 -3.7141E+01  2.5147E+03

           1    2.13004E+01     8.7097E-04  1.6273E-02  1.0165E+00  1.0166E+00
ac ID =   33377                -2.3829E-02 -7.2816E+00  1.7762E-01  7.2838E+00
                                4.7206E-02  2.8442E+01 -3.7103E+01  2.5147E+03

           1    2.14004E+01    -2.3036E-03 -1.3722E-02  9.9614E-01  9.9624E-01
ac ID =   33377                 7.7139E-01 -7.7486E+00 -1.3941E-01  7.7881E+00
                                4.9777E-02  2.8596E+01 -3.7068E+01  2.5147E+03

           1    2.15003E+01    -1.5796E-02  1.9621E-03  9.5616E-01  9.5630E-01
ac ID =   33377                 3.8905E-01 -8.2264E+00 -1.4088E-01  8.2368E+00
                                5.2321E-02  2.8751E+01 -3.7035E+01  2.5147E+03

           1    2.16003E+01     8.8772E-03  1.2695E-02  9.2537E-01  9.2549E-01
ac ID =   33377                -5.0915E-02 -7.7978E+00  7.8455E-02  7.7984E+00
                                5.4840E-02  2.8906E+01 -3.7004E+01  2.5147E+03

           1    2.17003E+01    -9.2924E-03  4.5835E-03  9.0439E-01  9.0445E-01
ac ID =   33377                 3.9121E-01 -8.4484E+00  1.0816E-01  8.4581E+00
                                5.7292E-02  2.9062E+01 -3.6975E+01  2.5147E+03

           1    2.18003E+01     2.2387E-03 -1.2334E-02  8.7234E-01  8.7243E-01
ac ID =   33377                 6.3727E-01 -8.4295E+00  1.2274E-01  8.4544E+00
                                5.9787E-02  2.9218E+01 -3.6948E+01  2.5147E+03

           1    2.19003E+01     2.0779E-02  1.1396E-02  8.2645E-01  8.2679E-01
ac ID =   33377                 1.4525E-01 -8.3302E+00 -3.2323E-02  8.3315E+00
                                6.2214E-02  2.9374E+01 -3.6924E+01  2.5147E+03

           1    2.20003E+01     2.6493E-02  1.0121E-02  7.8556E-01  7.8607E-01
ac ID =   33377                 3.6661E-01 -8.1240E+00 -1.6441E-01  8.1339E+00
                                6.4609E-02  2.9532E+01 -3.6901E+01  2.5147E+03

           1    2.21003E+01     1.9319E-02 -1.0420E-02  7.5279E-01  7.5311E-01
ac ID =   33377                 6.5667E-01 -8.3041E+00  7.7769E-02  8.3304E+00
                                6.7027E-02  2.9689E+01 -3.6880E+01  2.5147E+03

           1    2.22003E+01     5.1669E-02  1.8932E-03  7.0849E-01  7.1037E-01
ac ID =   33377                 4.8887E-01 -7.6582E+00  5.3460E-02  7.6739E+00
                                6.9412E-02  2.9847E+01 -3.6861E+01  2.5147E+03

           1    2.23003E+01     5.7043E-02  1.5911E-02  6.6412E-01  6.6675E-01
ac ID =   33377                 4.3243E-02 -7.2467E+00  1.5442E-01  7.2485E+00
                                7.1757E-02  3.0005E+01 -3.6843E+01  2.5147E+03

           1    2.24003E+01     4.8239E-02  4.3737E-03  6.1221E-01  6.1413E-01
ac ID =   33377                 2.6346E-01 -7.6661E+00 -4.8184E-02  7.6708E+00
                                7.4110E-02  3.0164E+01 -3.6827E+01  2.5147E+03

           1    2.25002E+01     6.4717E-02 -3.6524E-03  5.8045E-01  5.8406E-01
ac ID =   33377                 5.1790E-01 -7.2902E+00 -2.0555E-01  7.3115E+00
                                7.6427E-02  3.0322E+01 -3.6812E+01  2.5147E+03

           1    2.26002E+01     7.7651E-02  8.3720E-03  5.3937E-01  5.4500E-01
ac ID =   33377                 1.3293E-01 -7.4542E+00 -9.0765E-02  7.4559E+00
                                7.8732E-02  3.0481E+01 -3.6799E+01  2.5147E+03

           1    2.27002E+01     7.1572E-02  1.7487E-02  4.8138E-01  4.8698E-01
ac ID =   33377                 8.8656E-02 -7.4564E+00  1.1741E-01  7.4579E+00
                                8.0981E-02  3.0639E+01 -3.6787E+01  2.5147E+03

           1    2.28002E+01     7.8363E-02 -2.5780E-03  4.3696E-01  4.4394E-01
ac ID =   33377                 5.0309E-01 -7.6685E+00  1.6540E-01  7.6868E+00
                                8.3280E-02  3.0798E+01 -3.6776E+01  2.5147E+03

           1    2.29002E+01     9.0109E-02  6.1306E-04  3.8481E-01  3.9522E-01
ac ID =   33377                 4.6636E-01 -7.5592E+00 -9.4253E-02  7.5742E+00
                                8.5526E-02  3.0957E+01 -3.6766E+01  2.5147E+03

           1    2.30002E+01     8.8473E-02  1.6520E-02  3.4868E-01  3.6011E-01
ac ID =   33377                 1.6544E-01 -7.9457E+00  3.1982E-02  7.9475E+00
                                8.7800E-02  3.1116E+01 -3.6757E+01  2.5147E+03

           1    2.31002E+01     8.6781E-02  1.2389E-02  3.0265E-01  3.1509E-01
ac ID =   33377                 2.4990E-01 -8.6424E+00  1.9816E-01  8.6483E+00
                                9.0074E-02  3.1274E+01 -3.6749E+01  2.5147E+03

           1    2.32002E+01     9.5043E-02 -1.1980E-02  2.3308E-01  2.5200E-01
ac ID =   33377                 8.9112E-01 -8.5673E+00  1.1719E-01  8.6143E+00
                                9.2347E-02  3.1433E+01 -3.6741E+01  2.5147E+03

           1    2.33002E+01     8.6894E-02  1.1735E-02  1.8816E-01  2.0759E-01
ac ID =   33377                 4.2697E-02 -9.2310E+00  6.4467E-02  9.2313E+00
                                9.4610E-02  3.1591E+01 -3.6734E+01  2.5147E+03

           1    2.34002E+01     8.7020E-02  2.3763E-02  1.5420E-01  1.7864E-01
ac ID =   33377                -1.0633E-01 -9.6063E+00  7.9097E-03  9.6069E+00
                                9.6823E-02  3.1749E+01 -3.6728E+01  2.5147E+03

           1    2.35001E+01     9.1381E-02 -2.3052E-03  1.0016E-01  1.3560E-01
ac ID =   33377                 6.1180E-01 -9.9811E+00  1.4312E-01  1.0001E+01
                                9.9113E-02  3.1907E+01 -3.6722E+01  2.5147E+03

           1    2.36001E+01     1.0004E-01 -4.2571E-03  4.0420E-02  1.0798E-01
ac ID =   33377                 6.6019E-01 -1.0465E+01  1.7821E-01  1.0487E+01
                                1.0136E-01  3.2065E+01 -3.6716E+01  2.5147E+03

           1    2.37001E+01     8.6212E-02  2.8875E-02  5.8665E-03  9.1109E-02
ac ID =   33377                -1.4186E-01 -1.0875E+01  8.5529E-02  1.0876E+01
                                1.0357E-01  3.2222E+01 -3.6710E+01  2.5147E+03

           1    2.38001E+01     9.5564E-02  6.3805E-03 -3.8887E-02  1.0337E-01
ac ID =   33377                 3.8461E-01 -1.1216E+01  1.9005E-01  1.1224E+01
                                1.0584E-01  3.2380E+01 -3.6704E+01  2.5147E+03

           1    2.39001E+01     9.8927E-02 -1.3444E-02 -8.6536E-02  1.3212E-01
ac ID =   33377                 8.1687E-01 -1.1555E+01  9.7401E-02  1.1584E+01
                                1.0814E-01  3.2537E+01 -3.6697E+01  2.5147E+03

           1    2.40001E+01     1.0989E-01  1.0313E-02 -1.3127E-01  1.7151E-01
ac ID =   33377                 1.4874E-01 -1.1636E+01  1.0474E-01  1.1638E+01
                                1.1037E-01  3.2694E+01 -3.6691E+01  2.5147E+03

           1    2.41001E+01     8.9264E-02  2.0068E-02 -1.8231E-01  2.0398E-01
ac ID =   33377                 1.1046E-01 -1.2095E+01  1.8686E-01  1.2097E+01
                                1.1260E-01  3.2850E+01 -3.6684E+01  2.5147E+03

           1    2.42001E+01     1.0670E-01 -5.2517E-03 -2.2522E-01  2.4927E-01
ac ID =   33377                 5.9795E-01 -1.2070E+01 -1.3630E-02  1.2085E+01
                                1.1488E-01  3.3006E+01 -3.6676E+01  2.5147E+03

           1    2.43001E+01     1.1035E-01  2.8612E-04 -2.4490E-01  2.6861E-01
ac ID =   33377                 5.3294E-01 -1.2388E+01  4.1377E-02  1.2399E+01
                                1.1711E-01  3.3162E+01 -3.6668E+01  2.5147E+03

           1    2.44001E+01     1.1952E-01  2.0470E-02 -2.9778E-01  3.2153E-01
ac ID =   33377                -2.8259E-02 -1.2278E+01  2.0932E-01  1.2280E+01
                                1.1932E-01  3.3318E+01 -3.6660E+01  2.5147E+03

           1    2.45005E+01     1.2616E-01  1.3326E-03 -3.4911E-01  3.7120E-01
ac ID =   33377                 4.5244E-01 -1.2190E+01  7.5889E-03  1.2198E+01
                                1.2160E-01  3.3473E+01 -3.6650E+01  2.5147E+03

           1    2.46005E+01     1.2756E-01 -1.1303E-02 -3.9042E-01  4.1089E-01
ac ID =   33377                 5.9329E-01 -1.2195E+01 -9.4527E-02  1.2210E+01
                                1.2383E-01  3.3628E+01 -3.6639E+01  2.5147E+03

           1    2.47005E+01     1.4852E-01  1.4734E-02 -4.1673E-01  4.4265E-01
ac ID =   33377                 1.3637E-01 -1.1830E+01  7.1204E-02  1.1831E+01
                                1.2603E-01  3.3782E+01 -3.6628E+01  2.5147E+03

           1    2.48005E+01     1.4088E-01  1.0100E-02 -4.4668E-01  4.6848E-01
ac ID =   33377                 9.2293E-02 -1.2033E+01  1.0954E-01  1.2034E+01
                                1.2827E-01  3.3936E+01 -3.6616E+01  2.5147E+03

           1    2.49005E+01     1.5435E-01 -8.5649E-03 -4.9641E-01  5.1993E-01
ac ID =   33377                 6.9649E-01 -1.1682E+01 -1.5434E-01  1.1704E+01
                                1.3053E-01  3.4089E+01 -3.6602E+01  2.5147E+03

