 LSTC 50th% Full_FE H-III Dummy (Beta Version, February 17, 2019)        
                    ls-dyna smp s R16 R16.0_619_d222963 date 03/18/2025

{BEGIN LEGEND}
 Entity #        Title
    22626                                                                                     
{END LEGEND}




 n o d a l   p r i n t   o u t   f o r   t i m e  s t e p       1                              ( at time 0.0000000E+00 )

 nodal point  x-disp     y-disp      z-disp      x-vel       y-vel       z-vel      x-accl      y-accl      z-accl      x-coor      y-coor      z-coor
    22626  0.00000E+00 0.00000E+00 0.00000E+00 0.00000E+00 0.00000E+00 0.00000E+00 0.00000E+00 0.00000E+00 0.00000E+00 4.65938E+00-2.81908E+01-4.49817E+01



 n o d a l   p r i n t   o u t   f o r   t i m e  s t e p       1                              ( at time 0.0000000E+00 )

 nodal point  x-rot      y-rot       z-rot       x-rot vel   y-rot vel   z-rot vel   x-rot acc   y-rot acc   z-rot acc
    22626  0.00000E+00 0.00000E+00 0.00000E+00 0.00000E+00 0.00000E+00 0.00000E+00 0.00000E+00 0.00000E+00 0.00000E+00



 n o d a l   p r i n t   o u t   f o r   t i m e  s t e p     201                              ( at time 9.9989993E-02 )

 nodal point  x-disp     y-disp      z-disp      x-vel       y-vel       z-vel      x-accl      y-accl      z-accl      x-coor      y-coor      z-coor
    22626  2.73454E-07 1.73600E-06-5.34269E-05 4.19677E-05 2.55530E-04-1.46810E-03 4.19719E-04 2.55555E-03-1.46824E-02 4.65938E+00-2.81908E+01-4.49818E+01



 n o d a l   p r i n t   o u t   f o r   t i m e  s t e p     201                              ( at time 9.9989993E-02 )

 nodal point  x-rot      y-rot       z-rot       x-rot vel   y-rot vel   z-rot vel   x-rot acc   y-rot acc   z-rot acc
    22626 -5.99116E-08-8.37530E-09-5.45083E-09-5.87001E-06-9.69268E-07-9.26402E-07-5.87060E-05-9.69365E-06-9.26495E-06



 n o d a l   p r i n t   o u t   f o r   t i m e  s t e p     401                              ( at time 1.9997999E-01 )

 nodal point  x-disp     y-disp      z-disp      x-vel       y-vel       z-vel      x-accl      y-accl      z-accl      x-coor      y-coor      z-coor
    22626  1.73185E-05 3.61701E-04-6.67528E-04 3.09582E-05 7.81045E-03-1.21531E-02-1.10105E-04 7.55568E-02-1.06861E-01 4.65939E+00-2.81905E+01-4.49824E+01



 n o d a l   p r i n t   o u t   f o r   t i m e  s t e p     401                              ( at time 1.9997999E-01 )

 nodal point  x-rot      y-rot       z-rot       x-rot vel   y-rot vel   z-rot vel   x-rot acc   y-rot acc   z-rot acc
    22626 -2.82058E-06-3.37150E-07-3.34543E-07-3.94309E-05-1.76773E-06-2.28613E-06-3.35642E-04-7.98539E-06-1.35986E-05



 n o d a l   p r i n t   o u t   f o r   t i m e  s t e p     601                              ( at time 2.9996998E-01 )

 nodal point  x-disp     y-disp      z-disp      x-vel       y-vel       z-vel      x-accl      y-accl      z-accl      x-coor      y-coor      z-coor
    22626  2.73862E-05 1.23956E-03-2.33773E-03 4.20983E-04 8.43748E-03-1.92408E-02 3.90064E-03 6.27093E-03-7.08840E-02 4.65940E+00-2.81896E+01-4.49841E+01



 n o d a l   p r i n t   o u t   f o r   t i m e  s t e p     601                              ( at time 2.9996998E-01 )

 nodal point  x-rot      y-rot       z-rot       x-rot vel   y-rot vel   z-rot vel   x-rot acc   y-rot acc   z-rot acc
    22626 -5.39368E-06-3.89863E-07-6.41725E-07-1.55582E-05-5.51017E-06-6.69341E-06 2.38751E-04-3.74282E-05-4.40772E-05



 n o d a l   p r i n t   o u t   f o r   t i m e  s t e p     801                              ( at time 3.9995997E-01 )

 nodal point  x-disp     y-disp      z-disp      x-vel       y-vel       z-vel      x-accl      y-accl      z-accl      x-coor      y-coor      z-coor
    22626  2.59953E-05 2.16096E-03-4.28056E-03-3.13854E-04 1.07328E-02-2.10665E-02-7.34911E-03 2.29558E-02-1.82582E-02 4.65940E+00-2.81887E+01-4.49860E+01



 n o d a l   p r i n t   o u t   f o r   t i m e  s t e p     801                              ( at time 3.9995997E-01 )

 nodal point  x-rot      y-rot       z-rot       x-rot vel   y-rot vel   z-rot vel   x-rot acc   y-rot acc   z-rot acc
    22626 -7.63576E-06-1.24954E-06-9.82136E-07-4.49248E-05-6.25379E-06-1.52341E-06-2.93695E-04-7.43694E-06 5.17052E-05



 n o d a l   p r i n t   o u t   f o r   t i m e  s t e p    1001                              ( at time 4.9994997E-01 )

 nodal point  x-disp     y-disp      z-disp      x-vel       y-vel       z-vel      x-accl      y-accl      z-accl      x-coor      y-coor      z-coor
    22626  3.90329E-06 3.43421E-03-6.73935E-03-2.37951E-04 1.41212E-02-2.86550E-02 7.59103E-04 3.38869E-02-7.58932E-02 4.65938E+00-2.81874E+01-4.49885E+01



 n o d a l   p r i n t   o u t   f o r   t i m e  s t e p    1001                              ( at time 4.9994997E-01 )

 nodal point  x-rot      y-rot       z-rot       x-rot vel   y-rot vel   z-rot vel   x-rot acc   y-rot acc   z-rot acc
    22626 -1.35945E-05-1.16704E-06-9.53088E-07-8.45938E-05 3.21669E-06 4.11785E-06-3.96730E-04 9.47143E-05 5.64182E-05



 n o d a l   p r i n t   o u t   f o r   t i m e  s t e p    1201                              ( at time 5.9993996E-01 )

 nodal point  x-disp     y-disp      z-disp      x-vel       y-vel       z-vel      x-accl      y-accl      z-accl      x-coor      y-coor      z-coor
    22626 -1.44389E-06 5.00054E-03-9.69832E-03 3.66849E-05 1.65203E-02-3.07718E-02 2.74664E-03 2.39941E-02-2.11703E-02 4.65937E+00-2.81858E+01-4.49914E+01



 n o d a l   p r i n t   o u t   f o r   t i m e  s t e p    1201                              ( at time 5.9993996E-01 )

 nodal point  x-rot      y-rot       z-rot       x-rot vel   y-rot vel   z-rot vel   x-rot acc   y-rot acc   z-rot acc
    22626 -2.04707E-05-8.92490E-07-9.73223E-07-6.15361E-05 3.60010E-06-2.46018E-06 2.30600E-04 3.83445E-06-6.57869E-05



 n o d a l   p r i n t   o u t   f o r   t i m e  s t e p    1401                              ( at time 6.9992995E-01 )

 nodal point  x-disp     y-disp      z-disp      x-vel       y-vel       z-vel      x-accl      y-accl      z-accl      x-coor      y-coor      z-coor
    22626 -5.04186E-05 6.81122E-03-1.31164E-02-4.54272E-04 1.92882E-02-3.84138E-02-4.91006E-03 2.76815E-02-7.64269E-02 4.65932E+00-2.81840E+01-4.49948E+01



 n o d a l   p r i n t   o u t   f o r   t i m e  s t e p    1401                              ( at time 6.9992995E-01 )

 nodal point  x-rot      y-rot       z-rot       x-rot vel   y-rot vel   z-rot vel   x-rot acc   y-rot acc   z-rot acc
    22626 -2.67670E-05-9.77975E-07-7.28769E-07-7.55715E-05-7.68628E-07 2.59578E-06-1.40368E-04-4.36916E-05 5.05647E-05



 n o d a l   p r i n t   o u t   f o r   t i m e  s t e p    1601                              ( at time 7.9991994E-01 )

 nodal point  x-disp     y-disp      z-disp      x-vel       y-vel       z-vel      x-accl      y-accl      z-accl      x-coor      y-coor      z-coor
    22626 -7.44700E-05 8.89782E-03-1.73298E-02-4.40476E-04 2.15378E-02-4.40576E-02 1.37970E-04 2.24984E-02-5.64440E-02 4.65930E+00-2.81819E+01-4.49991E+01



 n o d a l   p r i n t   o u t   f o r   t i m e  s t e p    1601                              ( at time 7.9991994E-01 )

 nodal point  x-rot      y-rot       z-rot       x-rot vel   y-rot vel   z-rot vel   x-rot acc   y-rot acc   z-rot acc
    22626 -3.55704E-05-1.09231E-06-7.97956E-07-9.98342E-05-6.67886E-06-9.80324E-07-2.42652E-04-5.91082E-05-3.57646E-05



 n o d a l   p r i n t   o u t   f o r   t i m e  s t e p    1801                              ( at time 8.9990994E-01 )

 nodal point  x-disp     y-disp      z-disp      x-vel       y-vel       z-vel      x-accl      y-accl      z-accl      x-coor      y-coor      z-coor
    22626 -1.06045E-04 1.10837E-02-2.17169E-02-2.40600E-04 2.30205E-02-4.38279E-02 1.99896E-03 1.48286E-02 2.29706E-03 4.65927E+00-2.81797E+01-4.50034E+01



 n o d a l   p r i n t   o u t   f o r   t i m e  s t e p    1801                              ( at time 8.9990994E-01 )

 nodal point  x-rot      y-rot       z-rot       x-rot vel   y-rot vel   z-rot vel   x-rot acc   y-rot acc   z-rot acc
    22626 -4.50492E-05-1.41446E-06-1.14355E-06-9.56394E-05-1.20116E-06-5.56163E-06 4.19526E-05 5.47825E-05-4.58177E-05



 n o d a l   p r i n t   o u t   f o r   t i m e  s t e p    2001                              ( at time 9.9989993E-01 )

 nodal point  x-disp     y-disp      z-disp      x-vel       y-vel       z-vel      x-accl      y-accl      z-accl      x-coor      y-coor      z-coor
    22626 -1.34878E-04 1.34950E-02-2.62344E-02 8.25125E-05 2.50103E-02-4.73544E-02 3.23145E-03 1.98998E-02-3.52678E-02 4.65924E+00-2.81773E+01-4.50080E+01



 n o d a l   p r i n t   o u t   f o r   t i m e  s t e p    2001                              ( at time 9.9989993E-01 )

 nodal point  x-rot      y-rot       z-rot       x-rot vel   y-rot vel   z-rot vel   x-rot acc   y-rot acc   z-rot acc
    22626 -5.56818E-05-1.82332E-06-1.71056E-06-1.23931E-04-5.63454E-06-1.09404E-05-2.82948E-04-4.43383E-05-5.37934E-05



 n o d a l   p r i n t   o u t   f o r   t i m e  s t e p    2201                              ( at time 1.0998899E+00 )

 nodal point  x-disp     y-disp      z-disp      x-vel       y-vel       z-vel      x-accl      y-accl      z-accl      x-coor      y-coor      z-coor
    22626 -1.15242E-04 1.60701E-02-3.12481E-02 6.58207E-05 2.69991E-02-5.24994E-02-1.66935E-04 1.98901E-02-5.14553E-02 4.65926E+00-2.81748E+01-4.50130E+01



 n o d a l   p r i n t   o u t   f o r   t i m e  s t e p    2201                              ( at time 1.0998899E+00 )

 nodal point  x-rot      y-rot       z-rot       x-rot vel   y-rot vel   z-rot vel   x-rot acc   y-rot acc   z-rot acc
    22626 -6.87750E-05-2.85882E-06-3.07268E-06-1.26532E-04-1.95252E-05-1.50446E-05-2.60073E-05-1.38921E-04-4.10455E-05



 n o d a l   p r i n t   o u t   f o r   t i m e  s t e p    2401                              ( at time 1.1998799E+00 )

 nodal point  x-disp     y-disp      z-disp      x-vel       y-vel       z-vel      x-accl      y-accl      z-accl      x-coor      y-coor      z-coor
    22626 -1.03488E-04 1.88093E-02-3.67158E-02 2.22477E-04 2.79392E-02-5.66206E-02 1.56672E-03 9.40111E-03-4.12165E-02 4.65927E+00-2.81720E+01-4.50184E+01



 n o d a l   p r i n t   o u t   f o r   t i m e  s t e p    2401                              ( at time 1.1998799E+00 )

 nodal point  x-rot      y-rot       z-rot       x-rot vel   y-rot vel   z-rot vel   x-rot acc   y-rot acc   z-rot acc
    22626 -8.12816E-05-4.75964E-06-4.61942E-06-1.29682E-04-2.14779E-05-1.73770E-05-3.15003E-05-1.95284E-05-2.33262E-05



 n o d a l   p r i n t   o u t   f o r   t i m e  s t e p    2601                              ( at time 1.2998699E+00 )

 nodal point  x-disp     y-disp      z-disp      x-vel       y-vel       z-vel      x-accl      y-accl      z-accl      x-coor      y-coor      z-coor
    22626 -9.09281E-05 2.17101E-02-4.24790E-02 2.61453E-04 2.99990E-02-5.83239E-02 3.89793E-04 2.06008E-02-1.70347E-02 4.65928E+00-2.81691E+01-4.50242E+01



 n o d a l   p r i n t   o u t   f o r   t i m e  s t e p    2601                              ( at time 1.2998699E+00 )

 nodal point  x-rot      y-rot       z-rot       x-rot vel   y-rot vel   z-rot vel   x-rot acc   y-rot acc   z-rot acc
    22626 -9.52029E-05-6.84636E-06-6.52556E-06-1.61376E-04-1.67610E-05-2.07182E-05-3.16978E-04 4.71740E-05-3.34157E-05



 n o d a l   p r i n t   o u t   f o r   t i m e  s t e p    2801                              ( at time 1.3998599E+00 )

 nodal point  x-disp     y-disp      z-disp      x-vel       y-vel       z-vel      x-accl      y-accl      z-accl      x-coor      y-coor      z-coor
    22626 -5.64157E-05 2.47758E-02-4.83359E-02 3.37060E-04 3.10205E-02-5.95192E-02 7.56151E-04 1.02159E-02-1.19545E-02 4.65932E+00-2.81661E+01-4.50301E+01



 n o d a l   p r i n t   o u t   f o r   t i m e  s t e p    2801                              ( at time 1.3998599E+00 )

 nodal point  x-rot      y-rot       z-rot       x-rot vel   y-rot vel   z-rot vel   x-rot acc   y-rot acc   z-rot acc
    22626 -1.12211E-04-8.80093E-06-8.79934E-06-1.81767E-04-2.40576E-05-2.11706E-05-2.03925E-04-7.29733E-05-4.52453E-06



 n o d a l   p r i n t   o u t   f o r   t i m e  s t e p    3001                              ( at time 1.4998499E+00 )

 nodal point  x-disp     y-disp      z-disp      x-vel       y-vel       z-vel      x-accl      y-accl      z-accl      x-coor      y-coor      z-coor
    22626 -3.04067E-05 2.79673E-02-5.45466E-02 1.35901E-04 3.26765E-02-6.50473E-02-2.01179E-03 1.65612E-02-5.52859E-02 4.65934E+00-2.81629E+01-4.50363E+01



 n o d a l   p r i n t   o u t   f o r   t i m e  s t e p    3001                              ( at time 1.4998499E+00 )

 nodal point  x-rot      y-rot       z-rot       x-rot vel   y-rot vel   z-rot vel   x-rot acc   y-rot acc   z-rot acc
    22626 -1.30531E-04-1.11897E-05-1.10394E-05-1.85071E-04-2.58529E-05-2.82189E-05-3.30465E-05-1.79553E-05-7.04897E-05



 n o d a l   p r i n t   o u t   f o r   t i m e  s t e p    3201                              ( at time 1.5998399E+00 )

 nodal point  x-disp     y-disp      z-disp      x-vel       y-vel       z-vel      x-accl      y-accl      z-accl      x-coor      y-coor      z-coor
    22626 -1.18509E-05 3.13309E-02-6.12858E-02 5.28063E-04 3.43722E-02-6.89019E-02 3.92201E-03 1.69588E-02-3.85504E-02 4.65936E+00-2.81595E+01-4.50430E+01



 n o d a l   p r i n t   o u t   f o r   t i m e  s t e p    3201                              ( at time 1.5998399E+00 )

 nodal point  x-rot      y-rot       z-rot       x-rot vel   y-rot vel   z-rot vel   x-rot acc   y-rot acc   z-rot acc
    22626 -1.49785E-04-1.38983E-05-1.37908E-05-2.07692E-04-3.26105E-05-3.09486E-05-2.26234E-04-6.75828E-05-2.73002E-05



 n o d a l   p r i n t   o u t   f o r   t i m e  s t e p    3401                              ( at time 1.6998299E+00 )

 nodal point  x-disp     y-disp      z-disp      x-vel       y-vel       z-vel      x-accl      y-accl      z-accl      x-coor      y-coor      z-coor
    22626  1.41145E-05 3.48356E-02-6.82909E-02-1.44004E-04 3.53530E-02-7.08499E-02-6.72134E-03 9.80911E-03-1.94814E-02 4.65939E+00-2.81560E+01-4.50500E+01



 n o d a l   p r i n t   o u t   f o r   t i m e  s t e p    3401                              ( at time 1.6998299E+00 )

 nodal point  x-rot      y-rot       z-rot       x-rot vel   y-rot vel   z-rot vel   x-rot acc   y-rot acc   z-rot acc
    22626 -1.72038E-04-1.66677E-05-1.69059E-05-2.37460E-04-2.43394E-05-2.70850E-05-2.97711E-04 8.27194E-05 3.86403E-05



 n o d a l   p r i n t   o u t   f o r   t i m e  s t e p    3601                              ( at time 1.7998199E+00 )

 nodal point  x-disp     y-disp      z-disp      x-vel       y-vel       z-vel      x-accl      y-accl      z-accl      x-coor      y-coor      z-coor
    22626  2.60302E-05 3.83625E-02-7.54310E-02 3.81662E-04 3.58082E-02-7.22772E-02 5.25720E-03 4.55228E-03-1.42747E-02 4.65940E+00-2.81525E+01-4.50572E+01



 n o d a l   p r i n t   o u t   f o r   t i m e  s t e p    3601                              ( at time 1.7998199E+00 )

 nodal point  x-rot      y-rot       z-rot       x-rot vel   y-rot vel   z-rot vel   x-rot acc   y-rot acc   z-rot acc
    22626 -1.96376E-04-1.94035E-05-2.03856E-05-2.46520E-04-2.85380E-05-4.12719E-05-9.06088E-05-4.19904E-05-1.41883E-04



 n o d a l   p r i n t   o u t   f o r   t i m e  s t e p    3801                              ( at time 1.8998099E+00 )

 nodal point  x-disp     y-disp      z-disp      x-vel       y-vel       z-vel      x-accl      y-accl      z-accl      x-coor      y-coor      z-coor
    22626  5.45716E-05 4.20976E-02-8.28522E-02 4.47012E-04 3.88030E-02-7.63242E-02 6.53563E-04 2.99507E-02-4.04742E-02 4.65943E+00-2.81487E+01-4.50646E+01



 n o d a l   p r i n t   o u t   f o r   t i m e  s t e p    3801                              ( at time 1.8998099E+00 )

 nodal point  x-rot      y-rot       z-rot       x-rot vel   y-rot vel   z-rot vel   x-rot acc   y-rot acc   z-rot acc
    22626 -2.20409E-04-2.22167E-05-2.44027E-05-2.41347E-04-2.99155E-05-4.04465E-05 5.17407E-05-1.37762E-05 8.25453E-06



 n o d a l   p r i n t   o u t   f o r   t i m e  s t e p    4001                              ( at time 1.9997999E+00 )

 nodal point  x-disp     y-disp      z-disp      x-vel       y-vel       z-vel      x-accl      y-accl      z-accl      x-coor      y-coor      z-coor
    22626  7.88123E-05 4.60013E-02-9.07197E-02-6.65628E-05 3.97446E-02-8.08508E-02-5.13626E-03 9.41773E-03-4.52699E-02 4.65945E+00-2.81448E+01-4.50724E+01



 n o d a l   p r i n t   o u t   f o r   t i m e  s t e p    4001                              ( at time 1.9997999E+00 )

 nodal point  x-rot      y-rot       z-rot       x-rot vel   y-rot vel   z-rot vel   x-rot acc   y-rot acc   z-rot acc
    22626 -2.44721E-04-2.49391E-05-2.81560E-05-2.51108E-04-3.04244E-05-4.04642E-05-9.76220E-05-5.08948E-06-1.76896E-07



 n o d a l   p r i n t   o u t   f o r   t i m e  s t e p    4201                              ( at time 2.0997899E+00 )

 nodal point  x-disp     y-disp      z-disp      x-vel       y-vel       z-vel      x-accl      y-accl      z-accl      x-coor      y-coor      z-coor
    22626  8.41136E-05 5.00022E-02-9.89349E-02 3.45911E-04 4.02974E-02-8.32432E-02 4.12515E-03 5.52818E-03-2.39269E-02 4.65946E+00-2.81408E+01-4.50807E+01



 n o d a l   p r i n t   o u t   f o r   t i m e  s t e p    4201                              ( at time 2.0997899E+00 )

 nodal point  x-rot      y-rot       z-rot       x-rot vel   y-rot vel   z-rot vel   x-rot acc   y-rot acc   z-rot acc
    22626 -2.69624E-04-2.85672E-05-3.26523E-05-2.51787E-04-4.16646E-05-4.01088E-05-6.78682E-06-1.12414E-04 3.55430E-06



 n o d a l   p r i n t   o u t   f o r   t i m e  s t e p    4401                              ( at time 2.1997798E+00 )

 nodal point  x-disp     y-disp      z-disp      x-vel       y-vel       z-vel      x-accl      y-accl      z-accl      x-coor      y-coor      z-coor
    22626  1.63545E-04 5.40762E-02-1.07347E-01 1.11842E-03 4.09440E-02-8.47685E-02 7.72592E-03 6.46630E-03-1.52538E-02 4.65954E+00-2.81368E+01-4.50891E+01



 n o d a l   p r i n t   o u t   f o r   t i m e  s t e p    4401                              ( at time 2.1997798E+00 )

 nodal point  x-rot      y-rot       z-rot       x-rot vel   y-rot vel   z-rot vel   x-rot acc   y-rot acc   z-rot acc
    22626 -2.95499E-04-3.28452E-05-3.64697E-05-2.71329E-04-4.02403E-05-3.35083E-05-1.95440E-04 1.42443E-05 6.60118E-05



 n o d a l   p r i n t   o u t   f o r   t i m e  s t e p    4601                              ( at time 2.2997698E+00 )

 nodal point  x-disp     y-disp      z-disp      x-vel       y-vel       z-vel      x-accl      y-accl      z-accl      x-coor      y-coor      z-coor
    22626  2.90820E-04 5.81898E-02-1.15928E-01 1.40114E-03 4.20177E-02-8.78908E-02 2.82743E-03 1.07388E-02-3.12262E-02 4.65967E+00-2.81326E+01-4.50976E+01



 n o d a l   p r i n t   o u t   f o r   t i m e  s t e p    4601                              ( at time 2.2997698E+00 )

 nodal point  x-rot      y-rot       z-rot       x-rot vel   y-rot vel   z-rot vel   x-rot acc   y-rot acc   z-rot acc
    22626 -3.22478E-04-3.71956E-05-3.99932E-05-2.77466E-04-4.13296E-05-3.47141E-05-6.13814E-05-1.08939E-05-1.20597E-05



 n o d a l   p r i n t   o u t   f o r   t i m e  s t e p    4801                              ( at time 2.3997598E+00 )

 nodal point  x-disp     y-disp      z-disp      x-vel       y-vel       z-vel      x-accl      y-accl      z-accl      x-coor      y-coor      z-coor
    22626  3.61375E-04 6.24688E-02-1.24926E-01-1.71646E-04 4.34900E-02-9.18691E-02-1.57295E-02 1.47240E-02-3.97870E-02 4.65974E+00-2.81284E+01-4.51066E+01



 n o d a l   p r i n t   o u t   f o r   t i m e  s t e p    4801                              ( at time 2.3997598E+00 )

 nodal point  x-rot      y-rot       z-rot       x-rot vel   y-rot vel   z-rot vel   x-rot acc   y-rot acc   z-rot acc
    22626 -3.49603E-04-4.09683E-05-4.32062E-05-2.72347E-04-3.01372E-05-2.62910E-05 5.12003E-05 1.11936E-04 8.42398E-05



 n o d a l   p r i n t   o u t   f o r   t i m e  s t e p    5001                              ( at time 2.4997498E+00 )

 nodal point  x-disp     y-disp      z-disp      x-vel       y-vel       z-vel      x-accl      y-accl      z-accl      x-coor      y-coor      z-coor
    22626  3.08229E-04 6.69275E-02-1.34341E-01-6.38666E-04 4.54022E-02-9.55725E-02-4.67066E-03 1.91237E-02-3.70380E-02 4.65968E+00-2.81239E+01-4.51161E+01



 n o d a l   p r i n t   o u t   f o r   t i m e  s t e p    5001                              ( at time 2.4997498E+00 )

 nodal point  x-rot      y-rot       z-rot       x-rot vel   y-rot vel   z-rot vel   x-rot acc   y-rot acc   z-rot acc
    22626 -3.76432E-04-4.24006E-05-4.58146E-05-2.64791E-04-1.15850E-05-2.76596E-05 7.55636E-05 1.85540E-04-1.36878E-05



 n o d a l   p r i n t   o u t   f o r   t i m e  s t e p    5201                              ( at time 2.5997398E+00 )

 nodal point  x-disp     y-disp      z-disp      x-vel       y-vel       z-vel      x-accl      y-accl      z-accl      x-coor      y-coor      z-coor
    22626  1.86821E-04 7.14969E-02-1.43933E-01-1.70052E-03 4.58199E-02-9.62165E-02-1.06196E-02 4.17766E-03-6.44019E-03 4.65956E+00-2.81193E+01-4.51257E+01



 n o d a l   p r i n t   o u t   f o r   t i m e  s t e p    5201                              ( at time 2.5997398E+00 )

 nodal point  x-rot      y-rot       z-rot       x-rot vel   y-rot vel   z-rot vel   x-rot acc   y-rot acc   z-rot acc
    22626 -4.02077E-04-4.29921E-05-4.79802E-05-2.66715E-04-7.18871E-06-1.55073E-05-1.92370E-05 4.39678E-05 1.21536E-04



 n o d a l   p r i n t   o u t   f o r   t i m e  s t e p    5401                              ( at time 2.6997298E+00 )

 nodal point  x-disp     y-disp      z-disp      x-vel       y-vel       z-vel      x-accl      y-accl      z-accl      x-coor      y-coor      z-coor
    22626  8.29215E-05 7.60070E-02-1.53550E-01 4.34768E-04 4.50090E-02-9.65545E-02 2.13550E-02-8.10971E-03-3.38066E-03 4.65946E+00-2.81148E+01-4.51353E+01



 n o d a l   p r i n t   o u t   f o r   t i m e  s t e p    5401                              ( at time 2.6997298E+00 )

 nodal point  x-rot      y-rot       z-rot       x-rot vel   y-rot vel   z-rot vel   x-rot acc   y-rot acc   z-rot acc
    22626 -4.29489E-04-4.39211E-05-4.97269E-05-2.81895E-04-1.24600E-05-2.08987E-05-1.51818E-04-5.27177E-05-5.39192E-05



 n o d a l   p r i n t   o u t   f o r   t i m e  s t e p    5601                              ( at time 2.7997198E+00 )

 nodal point  x-disp     y-disp      z-disp      x-vel       y-vel       z-vel      x-accl      y-accl      z-accl      x-coor      y-coor      z-coor
    22626  1.27970E-04 8.05290E-02-1.63291E-01 3.26534E-04 4.54715E-02-9.79673E-02-1.08245E-03 4.62515E-03-1.41299E-02 4.65950E+00-2.81103E+01-4.51450E+01



 n o d a l   p r i n t   o u t   f o r   t i m e  s t e p    5601                              ( at time 2.7997198E+00 )

 nodal point  x-rot      y-rot       z-rot       x-rot vel   y-rot vel   z-rot vel   x-rot acc   y-rot acc   z-rot acc
    22626 -4.57033E-04-4.59869E-05-5.22687E-05-2.61704E-04-2.51885E-05-2.32743E-05 2.01924E-04-1.27298E-04-2.37587E-05



 n o d a l   p r i n t   o u t   f o r   t i m e  s t e p    5801                              ( at time 2.8997098E+00 )

 nodal point  x-disp     y-disp      z-disp      x-vel       y-vel       z-vel      x-accl      y-accl      z-accl      x-coor      y-coor      z-coor
    22626  1.60769E-04 8.50800E-02-1.73246E-01 1.80162E-04 4.57111E-02-1.01247E-01-1.46386E-03 2.39642E-03-3.27990E-02 4.65954E+00-2.81057E+01-4.51550E+01



 n o d a l   p r i n t   o u t   f o r   t i m e  s t e p    5801                              ( at time 2.8997098E+00 )

 nodal point  x-rot      y-rot       z-rot       x-rot vel   y-rot vel   z-rot vel   x-rot acc   y-rot acc   z-rot acc
    22626 -4.82756E-04-4.83788E-05-5.46837E-05-2.63243E-04-2.31728E-05-2.76884E-05-1.53835E-05 2.01583E-05-4.41455E-05



 n o d a l   p r i n t   o u t   f o r   t i m e  s t e p    6001                              ( at time 2.9996998E+00 )

 nodal point  x-disp     y-disp      z-disp      x-vel       y-vel       z-vel      x-accl      y-accl      z-accl      x-coor      y-coor      z-coor
    22626  1.16174E-04 8.96000E-02-1.83397E-01-8.62011E-04 4.47064E-02-1.00716E-01-1.04228E-02-1.00480E-02 5.30541E-03 4.65949E+00-2.81012E+01-4.51651E+01



 n o d a l   p r i n t   o u t   f o r   t i m e  s t e p    6001                              ( at time 2.9996998E+00 )

 nodal point  x-rot      y-rot       z-rot       x-rot vel   y-rot vel   z-rot vel   x-rot acc   y-rot acc   z-rot acc
    22626 -5.09987E-04-5.02200E-05-5.78144E-05-2.74817E-04-2.08486E-05-2.99355E-05-1.15758E-04 2.32450E-05-2.24726E-05



 n o d a l   p r i n t   o u t   f o r   t i m e  s t e p    6201                              ( at time 3.0996898E+00 )

 nodal point  x-disp     y-disp      z-disp      x-vel       y-vel       z-vel      x-accl      y-accl      z-accl      x-coor      y-coor      z-coor
    22626  7.71181E-05 9.40844E-02-1.93463E-01-2.06572E-04 4.52636E-02-1.01024E-01 6.55505E-03 5.57214E-03-3.07748E-03 4.65945E+00-2.80967E+01-4.51752E+01



 n o d a l   p r i n t   o u t   f o r   t i m e  s t e p    6201                              ( at time 3.0996898E+00 )

 nodal point  x-rot      y-rot       z-rot       x-rot vel   y-rot vel   z-rot vel   x-rot acc   y-rot acc   z-rot acc
    22626 -5.37499E-04-5.22220E-05-6.02393E-05-2.71956E-04-1.50585E-05-1.71454E-05 2.86181E-05 5.79061E-05 1.27914E-04



 n o d a l   p r i n t   o u t   f o r   t i m e  s t e p    6401                              ( at time 3.1996798E+00 )

 nodal point  x-disp     y-disp      z-disp      x-vel       y-vel       z-vel      x-accl      y-accl      z-accl      x-coor      y-coor      z-coor
    22626  5.64706E-05 9.86196E-02-2.03713E-01 5.15529E-05 4.54515E-02-1.04077E-01 2.58150E-03 1.87967E-03-3.05268E-02 4.65943E+00-2.80922E+01-4.51854E+01



 n o d a l   p r i n t   o u t   f o r   t i m e  s t e p    6401                              ( at time 3.1996798E+00 )

 nodal point  x-rot      y-rot       z-rot       x-rot vel   y-rot vel   z-rot vel   x-rot acc   y-rot acc   z-rot acc
    22626 -5.64871E-04-5.32120E-05-6.22430E-05-2.68146E-04-4.74930E-06-2.16823E-05 3.81015E-05 1.03103E-04-4.53737E-05



 n o d a l   p r i n t   o u t   f o r   t i m e  s t e p    6601                              ( at time 3.2996698E+00 )

 nodal point  x-disp     y-disp      z-disp      x-vel       y-vel       z-vel      x-accl      y-accl      z-accl      x-coor      y-coor      z-coor
    22626 -5.60031E-06 1.03162E-01-2.14257E-01-1.30635E-03 4.52907E-02-1.06202E-01-1.35804E-02-1.60796E-03-2.12553E-02 4.65937E+00-2.80877E+01-4.51960E+01



 n o d a l   p r i n t   o u t   f o r   t i m e  s t e p    6601                              ( at time 3.2996698E+00 )

 nodal point  x-rot      y-rot       z-rot       x-rot vel   y-rot vel   z-rot vel   x-rot acc   y-rot acc   z-rot acc
    22626 -5.92314E-04-5.37889E-05-6.43268E-05-2.70096E-04-5.75747E-06-1.61166E-05-1.95015E-05-1.00827E-05 5.56630E-05



 n o d a l   p r i n t   o u t   f o r   t i m e  s t e p    6801                              ( at time 3.3996598E+00 )

 nodal point  x-disp     y-disp      z-disp      x-vel       y-vel       z-vel      x-accl      y-accl      z-accl      x-coor      y-coor      z-coor
    22626 -9.69552E-05 1.07720E-01-2.24934E-01-7.91257E-04 4.55183E-02-1.07089E-01 5.15147E-03 2.27563E-03-8.87243E-03 4.65928E+00-2.80831E+01-4.52067E+01



 n o d a l   p r i n t   o u t   f o r   t i m e  s t e p    6801                              ( at time 3.3996598E+00 )

 nodal point  x-rot      y-rot       z-rot       x-rot vel   y-rot vel   z-rot vel   x-rot acc   y-rot acc   z-rot acc
    22626 -6.19249E-04-5.45957E-05-6.63282E-05-2.77924E-04-1.23809E-05-1.85494E-05-7.82839E-05-6.62413E-05-2.43302E-05



 n o d a l   p r i n t   o u t   f o r   t i m e  s t e p    7001                              ( at time 3.4996498E+00 )

 nodal point  x-disp     y-disp      z-disp      x-vel       y-vel       z-vel      x-accl      y-accl      z-accl      x-coor      y-coor      z-coor
    22626 -1.51663E-04 1.12181E-01-2.35605E-01-3.21366E-04 4.47280E-02-1.06434E-01 4.69939E-03-7.90300E-03 6.54704E-03 4.65922E+00-2.80786E+01-4.52173E+01



 n o d a l   p r i n t   o u t   f o r   t i m e  s t e p    7001                              ( at time 3.4996498E+00 )

 nodal point  x-rot      y-rot       z-rot       x-rot vel   y-rot vel   z-rot vel   x-rot acc   y-rot acc   z-rot acc
    22626 -6.46742E-04-5.53540E-05-6.82258E-05-2.92634E-04 4.11153E-06-1.52021E-05-1.47123E-04 1.64941E-04 3.34759E-05



 n o d a l   p r i n t   o u t   f o r   t i m e  s t e p    7201                              ( at time 3.5996397E+00 )

 nodal point  x-disp     y-disp      z-disp      x-vel       y-vel       z-vel      x-accl      y-accl      z-accl      x-coor      y-coor      z-coor
    22626 -2.19360E-04 1.16556E-01-2.46143E-01-7.63453E-04 4.30121E-02-1.05518E-01-4.42131E-03-1.71610E-02 9.16328E-03 4.65916E+00-2.80743E+01-4.52279E+01



 n o d a l   p r i n t   o u t   f o r   t i m e  s t e p    7201                              ( at time 3.5996397E+00 )

 nodal point  x-rot      y-rot       z-rot       x-rot vel   y-rot vel   z-rot vel   x-rot acc   y-rot acc   z-rot acc
    22626 -6.74555E-04-5.55288E-05-7.00154E-05-2.81854E-04 1.69760E-08-1.69154E-05 1.07818E-04-4.09497E-05-1.71347E-05



 n o d a l   p r i n t   o u t   f o r   t i m e  s t e p    7401                              ( at time 3.6996297E+00 )

 nodal point  x-disp     y-disp      z-disp      x-vel       y-vel       z-vel      x-accl      y-accl      z-accl      x-coor      y-coor      z-coor
    22626 -2.81993E-04 1.20801E-01-2.56729E-01-4.58783E-04 4.19619E-02-1.05690E-01 3.04700E-03-1.05029E-02-1.72386E-03 4.65909E+00-2.80700E+01-4.52384E+01



 n o d a l   p r i n t   o u t   f o r   t i m e  s t e p    7401                              ( at time 3.6996297E+00 )

 nodal point  x-rot      y-rot       z-rot       x-rot vel   y-rot vel   z-rot vel   x-rot acc   y-rot acc   z-rot acc
    22626 -7.02473E-04-5.63055E-05-7.26556E-05-2.76152E-04-7.06493E-06-2.78130E-05 5.70174E-05-7.08260E-05-1.08986E-04



 n o d a l   p r i n t   o u t   f o r   t i m e  s t e p    7601                              ( at time 3.7996197E+00 )

 nodal point  x-disp     y-disp      z-disp      x-vel       y-vel       z-vel      x-accl      y-accl      z-accl      x-coor      y-coor      z-coor
    22626 -3.52766E-04 1.24916E-01-2.67354E-01-8.25990E-04 4.02849E-02-1.06468E-01-3.67244E-03-1.67717E-02-7.77621E-03 4.65902E+00-2.80659E+01-4.52491E+01



 n o d a l   p r i n t   o u t   f o r   t i m e  s t e p    7601                              ( at time 3.7996197E+00 )

 nodal point  x-rot      y-rot       z-rot       x-rot vel   y-rot vel   z-rot vel   x-rot acc   y-rot acc   z-rot acc
    22626 -7.30406E-04-5.65716E-05-7.44898E-05-2.83077E-04-4.98241E-06-2.13767E-05-6.92569E-05 2.08273E-05 6.43694E-05



 n o d a l   p r i n t   o u t   f o r   t i m e  s t e p    7801                              ( at time 3.8996097E+00 )

 nodal point  x-disp     y-disp      z-disp      x-vel       y-vel       z-vel      x-accl      y-accl      z-accl      x-coor      y-coor      z-coor
    22626 -3.97212E-04 1.28898E-01-2.77927E-01-4.43344E-04 3.92647E-02-1.04588E-01 3.82684E-03-1.02030E-02 1.88000E-02 4.65898E+00-2.80619E+01-4.52596E+01



 n o d a l   p r i n t   o u t   f o r   t i m e  s t e p    7801                              ( at time 3.8996097E+00 )

 nodal point  x-rot      y-rot       z-rot       x-rot vel   y-rot vel   z-rot vel   x-rot acc   y-rot acc   z-rot acc
    22626 -7.57905E-04-5.70164E-05-7.65922E-05-2.84974E-04-1.03260E-05-2.42540E-05-1.89680E-05-5.34415E-05-2.87767E-05



 n o d a l   p r i n t   o u t   f o r   t i m e  s t e p    8001                              ( at time 3.9995997E+00 )

 nodal point  x-disp     y-disp      z-disp      x-vel       y-vel       z-vel      x-accl      y-accl      z-accl      x-coor      y-coor      z-coor
    22626 -4.06613E-04 1.32709E-01-2.88263E-01 9.06811E-05 3.74435E-02-1.02386E-01 5.34079E-03-1.82138E-02 2.20246E-02 4.65897E+00-2.80581E+01-4.52700E+01



 n o d a l   p r i n t   o u t   f o r   t i m e  s t e p    8001                              ( at time 3.9995997E+00 )

 nodal point  x-rot      y-rot       z-rot       x-rot vel   y-rot vel   z-rot vel   x-rot acc   y-rot acc   z-rot acc
    22626 -7.86158E-04-5.80621E-05-7.92413E-05-2.80811E-04-6.35343E-06-1.88636E-05 4.16303E-05 3.97300E-05 5.39096E-05



 n o d a l   p r i n t   o u t   f o r   t i m e  s t e p    8201                              ( at time 4.0995897E+00 )

 nodal point  x-disp     y-disp      z-disp      x-vel       y-vel       z-vel      x-accl      y-accl      z-accl      x-coor      y-coor      z-coor
    22626 -4.36149E-04 1.36388E-01-2.98468E-01-7.89593E-04 3.61735E-02-1.02163E-01-8.80361E-03-1.27012E-02 2.22884E-03 4.65894E+00-2.80544E+01-4.52802E+01



 n o d a l   p r i n t   o u t   f o r   t i m e  s t e p    8201                              ( at time 4.0995897E+00 )

 nodal point  x-rot      y-rot       z-rot       x-rot vel   y-rot vel   z-rot vel   x-rot acc   y-rot acc   z-rot acc
    22626 -8.13095E-04-5.81248E-05-8.11096E-05-2.59404E-04 1.09528E-05-1.89625E-05 2.14099E-04 1.73080E-04-9.88700E-07



 n o d a l   p r i n t   o u t   f o r   t i m e  s t e p    8401                              ( at time 4.1995797E+00 )

 nodal point  x-disp     y-disp      z-disp      x-vel       y-vel       z-vel      x-accl      y-accl      z-accl      x-coor      y-coor      z-coor
    22626 -5.63813E-04 1.39918E-01-3.08682E-01-1.88219E-03 3.44404E-02-1.01559E-01-1.09271E-02-1.73326E-02 6.04624E-03 4.65881E+00-2.80509E+01-4.52904E+01



 n o d a l   p r i n t   o u t   f o r   t i m e  s t e p    8401                              ( at time 4.1995797E+00 )

 nodal point  x-rot      y-rot       z-rot       x-rot vel   y-rot vel   z-rot vel   x-rot acc   y-rot acc   z-rot acc
    22626 -8.39277E-04-5.67953E-05-8.28450E-05-2.53212E-04 1.30429E-05-1.57017E-05 6.19220E-05 2.09026E-05 3.26110E-05



 n o d a l   p r i n t   o u t   f o r   t i m e  s t e p    8601                              ( at time 4.2995697E+00 )

 nodal point  x-disp     y-disp      z-disp      x-vel       y-vel       z-vel      x-accl      y-accl      z-accl      x-coor      y-coor      z-coor
    22626 -7.12731E-04 1.43335E-01-3.18778E-01-1.23089E-03 3.32382E-02-9.95791E-02 6.51369E-03-1.20238E-02 1.97960E-02 4.65866E+00-2.80475E+01-4.53005E+01



 n o d a l   p r i n t   o u t   f o r   t i m e  s t e p    8601                              ( at time 4.2995697E+00 )

 nodal point  x-rot      y-rot       z-rot       x-rot vel   y-rot vel   z-rot vel   x-rot acc   y-rot acc   z-rot acc
    22626 -8.64689E-04-5.52201E-05-8.35776E-05-2.42857E-04 1.86355E-05-8.57674E-06 1.03561E-04 5.59321E-05 7.12570E-05



 n o d a l   p r i n t   o u t   f o r   t i m e  s t e p    8801                              ( at time 4.3995597E+00 )

 nodal point  x-disp     y-disp      z-disp      x-vel       y-vel       z-vel      x-accl      y-accl      z-accl      x-coor      y-coor      z-coor
    22626 -8.17647E-04 1.46534E-01-3.28602E-01-3.28562E-04 3.07476E-02-9.68613E-02 9.02417E-03-2.49083E-02 2.71812E-02 4.65856E+00-2.80443E+01-4.53103E+01



 n o d a l   p r i n t   o u t   f o r   t i m e  s t e p    8801                              ( at time 4.3995597E+00 )

 nodal point  x-rot      y-rot       z-rot       x-rot vel   y-rot vel   z-rot vel   x-rot acc   y-rot acc   z-rot acc
    22626 -8.88922E-04-5.39727E-05-8.49036E-05-2.43378E-04 1.37310E-05-1.32777E-05-5.21244E-06-4.90503E-05-4.70145E-05



 n o d a l   p r i n t   o u t   f o r   t i m e  s t e p    9001                              ( at time 4.4995497E+00 )

 nodal point  x-disp     y-disp      z-disp      x-vel       y-vel       z-vel      x-accl      y-accl      z-accl      x-coor      y-coor      z-coor
    22626 -8.57466E-04 1.49521E-01-3.38157E-01-3.91325E-04 2.90200E-02-9.51173E-02-6.27688E-04-1.72780E-02 1.74417E-02 4.65852E+00-2.80413E+01-4.53199E+01



 n o d a l   p r i n t   o u t   f o r   t i m e  s t e p    9001                              ( at time 4.4995497E+00 )

 nodal point  x-rot      y-rot       z-rot       x-rot vel   y-rot vel   z-rot vel   x-rot acc   y-rot acc   z-rot acc
    22626 -9.13088E-04-5.32141E-05-8.61471E-05-2.31285E-04 6.93042E-06-1.04952E-05 1.20945E-04-6.80122E-05 2.78280E-05



 n o d a l   p r i n t   o u t   f o r   t i m e  s t e p    9201                              ( at time 4.5995397E+00 )

 nodal point  x-disp     y-disp      z-disp      x-vel       y-vel       z-vel      x-accl      y-accl      z-accl      x-coor      y-coor      z-coor
    22626 -9.25515E-04 1.52373E-01-3.47649E-01-1.12756E-03 2.78482E-02-9.43678E-02-7.36309E-03-1.17185E-02 7.49612E-03 4.65845E+00-2.80385E+01-4.53294E+01



 n o d a l   p r i n t   o u t   f o r   t i m e  s t e p    9201                              ( at time 4.5995397E+00 )

 nodal point  x-rot      y-rot       z-rot       x-rot vel   y-rot vel   z-rot vel   x-rot acc   y-rot acc   z-rot acc
    22626 -9.35711E-04-5.24044E-05-8.79312E-05-2.13234E-04 4.77443E-06-2.43426E-05 1.80524E-04-2.15621E-05-1.38488E-04



 n o d a l   p r i n t   o u t   f o r   t i m e  s t e p    9401                              ( at time 4.6995297E+00 )

 nodal point  x-disp     y-disp      z-disp      x-vel       y-vel       z-vel      x-accl      y-accl      z-accl      x-coor      y-coor      z-coor
    22626 -1.01852E-03 1.54992E-01-3.56973E-01-6.54186E-04 2.52776E-02-9.23991E-02 4.73420E-03-2.57094E-02 1.96887E-02 4.65836E+00-2.80358E+01-4.53387E+01



 n o d a l   p r i n t   o u t   f o r   t i m e  s t e p    9401                              ( at time 4.6995297E+00 )

 nodal point  x-rot      y-rot       z-rot       x-rot vel   y-rot vel   z-rot vel   x-rot acc   y-rot acc   z-rot acc
    22626 -9.56804E-04-5.18416E-05-9.03505E-05-2.13060E-04-2.40036E-07-1.83716E-05 1.73942E-06-5.01497E-05 5.97159E-05



 n o d a l   p r i n t   o u t   f o r   t i m e  s t e p    9601                              ( at time 4.7995197E+00 )

 nodal point  x-disp     y-disp      z-disp      x-vel       y-vel       z-vel      x-accl      y-accl      z-accl      x-coor      y-coor      z-coor
    22626 -1.06047E-03 1.57411E-01-3.66072E-01-1.57990E-04 2.30111E-02-8.90993E-02 4.96246E-03-2.26674E-02 3.30010E-02 4.65831E+00-2.80334E+01-4.53478E+01



 n o d a l   p r i n t   o u t   f o r   t i m e  s t e p    9601                              ( at time 4.7995197E+00 )

 nodal point  x-rot      y-rot       z-rot       x-rot vel   y-rot vel   z-rot vel   x-rot acc   y-rot acc   z-rot acc
    22626 -9.78112E-04-5.20586E-05-9.20568E-05-2.05907E-04-3.14111E-06-1.71042E-05 7.15411E-05-2.90137E-05 1.26758E-05



 n o d a l   p r i n t   o u t   f o r   t i m e  s t e p    9801                              ( at time 4.8995097E+00 )

 nodal point  x-disp     y-disp      z-disp      x-vel       y-vel       z-vel      x-accl      y-accl      z-accl      x-coor      y-coor      z-coor
    22626 -1.04590E-03 1.59617E-01-3.74819E-01 2.60139E-05 2.09226E-02-8.59639E-02 1.84023E-03-2.08868E-02 3.13577E-02 4.65833E+00-2.80312E+01-4.53565E+01



 n o d a l   p r i n t   o u t   f o r   t i m e  s t e p    9801                              ( at time 4.8995097E+00 )

 nodal point  x-rot      y-rot       z-rot       x-rot vel   y-rot vel   z-rot vel   x-rot acc   y-rot acc   z-rot acc
    22626 -9.98277E-04-5.24306E-05-9.45172E-05-1.86750E-04-3.00479E-06-2.86207E-05 1.91585E-04 1.36330E-06-1.15177E-04



 n o d a l   p r i n t   o u t   f o r   t i m e  s t e p   10001                              ( at time 4.9994997E+00 )

 nodal point  x-disp     y-disp      z-disp      x-vel       y-vel       z-vel      x-accl      y-accl      z-accl      x-coor      y-coor      z-coor
    22626 -1.04479E-03 1.61615E-01-3.83337E-01-6.92386E-05 1.89138E-02-8.48922E-02-9.52617E-04-2.00901E-02 1.07176E-02 4.65833E+00-2.80292E+01-4.53651E+01



 n o d a l   p r i n t   o u t   f o r   t i m e  s t e p   10001                              ( at time 4.9994997E+00 )

 nodal point  x-rot      y-rot       z-rot       x-rot vel   y-rot vel   z-rot vel   x-rot acc   y-rot acc   z-rot acc
    22626 -1.01657E-03-5.30515E-05-9.72587E-05-1.78059E-04-4.63962E-06-2.22327E-05 8.69177E-05-1.63498E-05 6.38861E-05



 n o d a l   p r i n t   o u t   f o r   t i m e  s t e p   10202                              ( at time 5.0999896E+00 )

 nodal point  x-disp     y-disp      z-disp      x-vel       y-vel       z-vel      x-accl      y-accl      z-accl      x-coor      y-coor      z-coor
    22626 -1.09594E-03 1.63428E-01-3.91796E-01-4.35131E-04 1.70899E-02-8.31312E-02-3.64110E-03-1.81503E-02 1.75243E-02 4.65828E+00-2.80274E+01-4.53735E+01



 n o d a l   p r i n t   o u t   f o r   t i m e  s t e p   10202                              ( at time 5.0999896E+00 )

 nodal point  x-rot      y-rot       z-rot       x-rot vel   y-rot vel   z-rot vel   x-rot acc   y-rot acc   z-rot acc
    22626 -1.03392E-03-5.34979E-05-9.95389E-05-1.61492E-04 1.51362E-06-2.42621E-05 1.64870E-04 6.12326E-05-2.01947E-05



 n o d a l   p r i n t   o u t   f o r   t i m e  s t e p   10402                              ( at time 5.1999796E+00 )

 nodal point  x-disp     y-disp      z-disp      x-vel       y-vel       z-vel      x-accl      y-accl      z-accl      x-coor      y-coor      z-coor
    22626 -1.11477E-03 1.65035E-01-3.99938E-01-2.94821E-04 1.48654E-02-7.99149E-02 1.40324E-03-2.22468E-02 3.21658E-02 4.65826E+00-2.80258E+01-4.53817E+01



 n o d a l   p r i n t   o u t   f o r   t i m e  s t e p   10402                              ( at time 5.1999796E+00 )

 nodal point  x-rot      y-rot       z-rot       x-rot vel   y-rot vel   z-rot vel   x-rot acc   y-rot acc   z-rot acc
    22626 -1.05007E-03-5.41787E-05-1.02171E-04-1.67738E-04-1.39318E-05-2.62882E-05-6.24643E-05-1.54469E-04-2.02627E-05



 n o d a l   p r i n t   o u t   f o r   t i m e  s t e p   10602                              ( at time 5.2999696E+00 )

 nodal point  x-disp     y-disp      z-disp      x-vel       y-vel       z-vel      x-accl      y-accl      z-accl      x-coor      y-coor      z-coor
    22626 -1.11479E-03 1.66372E-01-4.07736E-01 3.20810E-04 1.26491E-02-7.66041E-02 6.15694E-03-2.21650E-02 3.31114E-02 4.65826E+00-2.80245E+01-4.53895E+01



 n o d a l   p r i n t   o u t   f o r   t i m e  s t e p   10602                              ( at time 5.2999696E+00 )

 nodal point  x-rot      y-rot       z-rot       x-rot vel   y-rot vel   z-rot vel   x-rot acc   y-rot acc   z-rot acc
    22626 -1.06590E-03-5.55086E-05-1.04667E-04-1.58957E-04-4.80615E-06-2.35218E-05 8.78127E-05 9.12657E-05 2.76662E-05



 n o d a l   p r i n t   o u t   f o r   t i m e  s t e p   10802                              ( at time 5.3999596E+00 )

 nodal point  x-disp     y-disp      z-disp      x-vel       y-vel       z-vel      x-accl      y-accl      z-accl      x-coor      y-coor      z-coor
    22626 -1.09099E-03 1.67552E-01-4.15258E-01 2.26100E-04 1.14607E-02-7.43333E-02-9.47193E-04-1.18854E-02 2.27111E-02 4.65828E+00-2.80233E+01-4.53970E+01



 n o d a l   p r i n t   o u t   f o r   t i m e  s t e p   10802                              ( at time 5.3999596E+00 )

 nodal point  x-rot      y-rot       z-rot       x-rot vel   y-rot vel   z-rot vel   x-rot acc   y-rot acc   z-rot acc
    22626 -1.08070E-03-5.61943E-05-1.07681E-04-1.41170E-04-2.13072E-05-3.49233E-05 1.77886E-04-1.65027E-04-1.14026E-04



 n o d a l   p r i n t   o u t   f o r   t i m e  s t e p   11002                              ( at time 5.4999496E+00 )

 nodal point  x-disp     y-disp      z-disp      x-vel       y-vel       z-vel      x-accl      y-accl      z-accl      x-coor      y-coor      z-coor
    22626 -1.07399E-03 1.68628E-01-4.22589E-01-4.32189E-05 1.03464E-02-7.19730E-02-2.69347E-03-1.11444E-02 2.36050E-02 4.65830E+00-2.80222E+01-4.54043E+01



 n o d a l   p r i n t   o u t   f o r   t i m e  s t e p   11002                              ( at time 5.4999496E+00 )

 nodal point  x-rot      y-rot       z-rot       x-rot vel   y-rot vel   z-rot vel   x-rot acc   y-rot acc   z-rot acc
    22626 -1.09380E-03-5.87212E-05-1.11403E-04-1.28966E-04-2.93980E-05-4.02440E-05 1.22062E-04-8.09164E-05-5.32128E-05



 n o d a l   p r i n t   o u t   f o r   t i m e  s t e p   11202                              ( at time 5.5999396E+00 )

 nodal point  x-disp     y-disp      z-disp      x-vel       y-vel       z-vel      x-accl      y-accl      z-accl      x-coor      y-coor      z-coor
    22626 -1.05733E-03 1.69545E-01-4.29635E-01 4.50157E-04 8.38702E-03-6.84424E-02 4.93426E-03-1.95953E-02 3.53092E-02 4.65832E+00-2.80213E+01-4.54114E+01



 n o d a l   p r i n t   o u t   f o r   t i m e  s t e p   11202                              ( at time 5.5999396E+00 )

 nodal point  x-rot      y-rot       z-rot       x-rot vel   y-rot vel   z-rot vel   x-rot acc   y-rot acc   z-rot acc
    22626 -1.10651E-03-6.12215E-05-1.15261E-04-1.28036E-04-2.41776E-05-3.72006E-05 9.29758E-06 5.22100E-05 3.04376E-05



 n o d a l   p r i n t   o u t   f o r   t i m e  s t e p   11402                              ( at time 5.6999296E+00 )

 nodal point  x-disp     y-disp      z-disp      x-vel       y-vel       z-vel      x-accl      y-accl      z-accl      x-coor      y-coor      z-coor
    22626 -9.88925E-04 1.70348E-01-4.36236E-01 7.78287E-04 7.93432E-03-6.35216E-02 3.28161E-03-4.52749E-03 4.92131E-02 4.65839E+00-2.80205E+01-4.54180E+01



 n o d a l   p r i n t   o u t   f o r   t i m e  s t e p   11402                              ( at time 5.6999296E+00 )

 nodal point  x-rot      y-rot       z-rot       x-rot vel   y-rot vel   z-rot vel   x-rot acc   y-rot acc   z-rot acc
    22626 -1.11912E-03-6.40399E-05-1.19027E-04-1.28714E-04-2.43303E-05-3.13860E-05-6.78592E-06-1.52744E-06 5.81515E-05



 n o d a l   p r i n t   o u t   f o r   t i m e  s t e p   11602                              ( at time 5.7999195E+00 )

 nodal point  x-disp     y-disp      z-disp      x-vel       y-vel       z-vel      x-accl      y-accl      z-accl      x-coor      y-coor      z-coor
    22626 -9.18292E-04 1.71121E-01-4.42384E-01 3.86948E-04 7.69939E-03-6.00452E-02-3.91379E-03-2.34954E-03 3.47675E-02 4.65846E+00-2.80197E+01-4.54241E+01



 n o d a l   p r i n t   o u t   f o r   t i m e  s t e p   11602                              ( at time 5.7999195E+00 )

 nodal point  x-rot      y-rot       z-rot       x-rot vel   y-rot vel   z-rot vel   x-rot acc   y-rot acc   z-rot acc
    22626 -1.13169E-03-6.62211E-05-1.22497E-04-1.20289E-04-2.32034E-05-3.81339E-05 8.42627E-05 1.12699E-05-6.74864E-05



 n o d a l   p r i n t   o u t   f o r   t i m e  s t e p   11802                              ( at time 5.8999095E+00 )

 nodal point  x-disp     y-disp      z-disp      x-vel       y-vel       z-vel      x-accl      y-accl      z-accl      x-coor      y-coor      z-coor
    22626 -9.51477E-04 1.71932E-01-4.48318E-01-5.65031E-04 8.63692E-03-5.86148E-02-9.52075E-03 9.37623E-03 1.43056E-02 4.65842E+00-2.80189E+01-4.54300E+01



 n o d a l   p r i n t   o u t   f o r   t i m e  s t e p   11802                              ( at time 5.8999095E+00 )

 nodal point  x-rot      y-rot       z-rot       x-rot vel   y-rot vel   z-rot vel   x-rot acc   y-rot acc   z-rot acc
    22626 -1.14312E-03-6.85469E-05-1.26180E-04-1.19677E-04-2.20171E-05-3.77469E-05 6.12305E-06 1.18643E-05 3.87120E-06



 n o d a l   p r i n t   o u t   f o r   t i m e  s t e p   12002                              ( at time 5.9998995E+00 )

 nodal point  x-disp     y-disp      z-disp      x-vel       y-vel       z-vel      x-accl      y-accl      z-accl      x-coor      y-coor      z-coor
    22626 -9.77971E-04 1.72865E-01-4.54004E-01-1.65405E-04 9.85089E-03-5.48087E-02 3.99667E-03 1.21409E-02 3.80648E-02 4.65840E+00-2.80180E+01-4.54357E+01



 n o d a l   p r i n t   o u t   f o r   t i m e  s t e p   12002                              ( at time 5.9998995E+00 )

 nodal point  x-rot      y-rot       z-rot       x-rot vel   y-rot vel   z-rot vel   x-rot acc   y-rot acc   z-rot acc
    22626 -1.15520E-03-6.98907E-05-1.29066E-04-1.27951E-04-1.02555E-05-1.76851E-05-8.27480E-05 1.17627E-04 2.00638E-04



 n o d a l   p r i n t   o u t   f o r   t i m e  s t e p   12202                              ( at time 6.0998895E+00 )

 nodal point  x-disp     y-disp      z-disp      x-vel       y-vel       z-vel      x-accl      y-accl      z-accl      x-coor      y-coor      z-coor
    22626 -9.79841E-04 1.74007E-01-4.59289E-01-1.10111E-04 1.29159E-02-5.13278E-02 5.52990E-04 3.06530E-02 3.48124E-02 4.65840E+00-2.80168E+01-4.54410E+01



 n o d a l   p r i n t   o u t   f o r   t i m e  s t e p   12202                              ( at time 6.0998895E+00 )

 nodal point  x-rot      y-rot       z-rot       x-rot vel   y-rot vel   z-rot vel   x-rot acc   y-rot acc   z-rot acc
    22626 -1.16934E-03-7.07216E-05-1.31254E-04-1.56298E-04-1.45114E-05-2.27502E-05-2.83502E-04-4.25621E-05-5.06560E-05



 n o d a l   p r i n t   o u t   f o r   t i m e  s t e p   12402                              ( at time 6.1998795E+00 )

 nodal point  x-disp     y-disp      z-disp      x-vel       y-vel       z-vel      x-accl      y-accl      z-accl      x-coor      y-coor      z-coor
    22626 -1.04038E-03 1.75508E-01-4.64264E-01-1.02982E-03 1.70326E-02-4.86928E-02-9.19800E-03 4.11712E-02 2.63522E-02 4.65833E+00-2.80153E+01-4.54460E+01



 n o d a l   p r i n t   o u t   f o r   t i m e  s t e p   12402                              ( at time 6.1998795E+00 )

 nodal point  x-rot      y-rot       z-rot       x-rot vel   y-rot vel   z-rot vel   x-rot acc   y-rot acc   z-rot acc
    22626 -1.18593E-03-7.22784E-05-1.34231E-04-1.78753E-04-1.60468E-05-3.55368E-05-2.24576E-04-1.53561E-05-1.27879E-04



 n o d a l   p r i n t   o u t   f o r   t i m e  s t e p   12602                              ( at time 6.2998695E+00 )

 nodal point  x-disp     y-disp      z-disp      x-vel       y-vel       z-vel      x-accl      y-accl      z-accl      x-coor      y-coor      z-coor
    22626 -1.17766E-03 1.77490E-01-4.69066E-01-1.47944E-03 2.26231E-02-4.71535E-02-4.49672E-03 5.59108E-02 1.53954E-02 4.65820E+00-2.80133E+01-4.54508E+01



 n o d a l   p r i n t   o u t   f o r   t i m e  s t e p   12602                              ( at time 6.2998695E+00 )

 nodal point  x-rot      y-rot       z-rot       x-rot vel   y-rot vel   z-rot vel   x-rot acc   y-rot acc   z-rot acc
    22626 -1.20534E-03-7.38898E-05-1.38624E-04-2.05137E-04-1.45769E-05-4.64344E-05-2.63862E-04 1.47007E-05-1.08987E-04



 n o d a l   p r i n t   o u t   f o r   t i m e  s t e p   12802                              ( at time 6.3998595E+00 )

 nodal point  x-disp     y-disp      z-disp      x-vel       y-vel       z-vel      x-accl      y-accl      z-accl      x-coor      y-coor      z-coor
    22626 -1.27030E-03 1.80097E-01-4.73649E-01-3.50980E-04 2.99049E-02-4.45726E-02 1.12858E-02 7.28254E-02 2.58114E-02 4.65810E+00-2.80107E+01-4.54554E+01



 n o d a l   p r i n t   o u t   f o r   t i m e  s t e p   12802                              ( at time 6.3998595E+00 )

 nodal point  x-rot      y-rot       z-rot       x-rot vel   y-rot vel   z-rot vel   x-rot acc   y-rot acc   z-rot acc
    22626 -1.22840E-03-7.57499E-05-1.42593E-04-2.52649E-04-1.77833E-05-3.47544E-05-4.75170E-04-3.20669E-05 1.16812E-04



 n o d a l   p r i n t   o u t   f o r   t i m e  s t e p   13002                              ( at time 6.4998495E+00 )

 nodal point  x-disp     y-disp      z-disp      x-vel       y-vel       z-vel      x-accl      y-accl      z-accl      x-coor      y-coor      z-coor
    22626 -1.33934E-03 1.83518E-01-4.77992E-01-8.27690E-04 3.89261E-02-4.23461E-02-4.76759E-03 9.02210E-02 2.22667E-02 4.65804E+00-2.80073E+01-4.54597E+01



 n o d a l   p r i n t   o u t   f o r   t i m e  s t e p   13002                              ( at time 6.4998495E+00 )

 nodal point  x-rot      y-rot       z-rot       x-rot vel   y-rot vel   z-rot vel   x-rot acc   y-rot acc   z-rot acc
    22626 -1.25764E-03-7.83317E-05-1.46042E-04-3.25630E-04-2.59410E-05-4.55838E-05-7.29881E-04-8.15857E-05-1.08305E-04



 n o d a l   p r i n t   o u t   f o r   t i m e  s t e p   13202                              ( at time 6.5998395E+00 )

 nodal point  x-disp     y-disp      z-disp      x-vel       y-vel       z-vel      x-accl      y-accl      z-accl      x-coor      y-coor      z-coor
    22626 -1.48101E-03 1.87884E-01-4.82017E-01-2.22749E-03 4.86980E-02-3.85408E-02-1.39994E-02 9.77283E-02 3.80575E-02 4.65789E+00-2.80029E+01-4.54637E+01



 n o d a l   p r i n t   o u t   f o r   t i m e  s t e p   13202                              ( at time 6.5998395E+00 )

 nodal point  x-rot      y-rot       z-rot       x-rot vel   y-rot vel   z-rot vel   x-rot acc   y-rot acc   z-rot acc
    22626 -1.29363E-03-8.02682E-05-1.50560E-04-3.88426E-04-2.06842E-05-4.80421E-05-6.28017E-04 5.25731E-05-2.45851E-05



 n o d a l   p r i n t   o u t   f o r   t i m e  s t e p   13402                              ( at time 6.6998295E+00 )

 nodal point  x-disp     y-disp      z-disp      x-vel       y-vel       z-vel      x-accl      y-accl      z-accl      x-coor      y-coor      z-coor
    22626 -1.66659E-03 1.93363E-01-4.85821E-01-1.97964E-03 6.09003E-02-3.78447E-02 2.47875E-03 1.22035E-01 6.96115E-03 4.65771E+00-2.79975E+01-4.54675E+01



 n o d a l   p r i n t   o u t   f o r   t i m e  s t e p   13402                              ( at time 6.6998295E+00 )

 nodal point  x-rot      y-rot       z-rot       x-rot vel   y-rot vel   z-rot vel   x-rot acc   y-rot acc   z-rot acc
    22626 -1.33654E-03-8.18387E-05-1.54569E-04-4.65176E-04-1.94435E-05-4.17549E-05-7.67585E-04 1.24084E-05 6.28782E-05



 n o d a l   p r i n t   o u t   f o r   t i m e  s t e p   13602                              ( at time 6.7998195E+00 )

 nodal point  x-disp     y-disp      z-disp      x-vel       y-vel       z-vel      x-accl      y-accl      z-accl      x-coor      y-coor      z-coor
    22626 -1.89758E-03 2.00142E-01-4.89555E-01-2.35755E-03 7.42789E-02-3.68059E-02-3.77947E-03 1.33800E-01 1.03890E-02 4.65748E+00-2.79907E+01-4.54713E+01



 n o d a l   p r i n t   o u t   f o r   t i m e  s t e p   13602                              ( at time 6.7998195E+00 )

 nodal point  x-rot      y-rot       z-rot       x-rot vel   y-rot vel   z-rot vel   x-rot acc   y-rot acc   z-rot acc
    22626 -1.38837E-03-8.39020E-05-1.58981E-04-5.63218E-04-2.70847E-05-5.22074E-05-9.80511E-04-7.64203E-05-1.04535E-04



 n o d a l   p r i n t   o u t   f o r   t i m e  s t e p   13802                              ( at time 6.8998095E+00 )

 nodal point  x-disp     y-disp      z-disp      x-vel       y-vel       z-vel      x-accl      y-accl      z-accl      x-coor      y-coor      z-coor
    22626 -2.11287E-03 2.08320E-01-4.93193E-01-2.39925E-03 8.92125E-02-3.60339E-02-4.17028E-04 1.49351E-01 7.72092E-03 4.65726E+00-2.79825E+01-4.54749E+01



 n o d a l   p r i n t   o u t   f o r   t i m e  s t e p   13802                              ( at time 6.8998095E+00 )

 nodal point  x-rot      y-rot       z-rot       x-rot vel   y-rot vel   z-rot vel   x-rot acc   y-rot acc   z-rot acc
    22626 -1.44996E-03-8.79567E-05-1.64764E-04-6.57664E-04-4.39839E-05-5.95187E-05-9.44557E-04-1.69009E-04-7.31208E-05



 n o d a l   p r i n t   o u t   f o r   t i m e  s t e p   14002                              ( at time 6.9997995E+00 )

 nodal point  x-disp     y-disp      z-disp      x-vel       y-vel       z-vel      x-accl      y-accl      z-accl      x-coor      y-coor      z-coor
    22626 -2.35231E-03 2.18120E-01-4.96767E-01-2.18817E-03 1.06492E-01-3.56556E-02 2.11101E-03 1.72812E-01 3.78353E-03 4.65702E+00-2.79727E+01-4.54785E+01



 n o d a l   p r i n t   o u t   f o r   t i m e  s t e p   14002                              ( at time 6.9997995E+00 )

 nodal point  x-rot      y-rot       z-rot       x-rot vel   y-rot vel   z-rot vel   x-rot acc   y-rot acc   z-rot acc
    22626 -1.52209E-03-9.19688E-05-1.71108E-04-7.76559E-04-3.57980E-05-7.00742E-05-1.18907E-03 8.18679E-05-1.05566E-04



 n o d a l   p r i n t   o u t   f o r   t i m e  s t e p   14202                              ( at time 7.0997895E+00 )

 nodal point  x-disp     y-disp      z-disp      x-vel       y-vel       z-vel      x-accl      y-accl      z-accl      x-coor      y-coor      z-coor
    22626 -2.59371E-03 2.29708E-01-5.00313E-01-2.27662E-03 1.25411E-01-3.56121E-02-8.84597E-04 1.89213E-01 4.34634E-04 4.65678E+00-2.79611E+01-4.54820E+01



 n o d a l   p r i n t   o u t   f o r   t i m e  s t e p   14202                              ( at time 7.0997895E+00 )

 nodal point  x-rot      y-rot       z-rot       x-rot vel   y-rot vel   z-rot vel   x-rot acc   y-rot acc   z-rot acc
    22626 -1.60598E-03-9.62591E-05-1.77580E-04-8.91901E-04-4.69983E-05-6.32174E-05-1.15353E-03-1.12014E-04 6.85746E-05



 n o d a l   p r i n t   o u t   f o r   t i m e  s t e p   14402                              ( at time 7.1997794E+00 )

 nodal point  x-disp     y-disp      z-disp      x-vel       y-vel       z-vel      x-accl      y-accl      z-accl      x-coor      y-coor      z-coor
    22626 -2.86271E-03 2.43266E-01-5.03921E-01-2.98799E-03 1.45733E-01-3.67311E-02-7.11434E-03 2.03236E-01-1.11904E-02 4.65651E+00-2.79476E+01-4.54856E+01



 n o d a l   p r i n t   o u t   f o r   t i m e  s t e p   14402                              ( at time 7.1997794E+00 )

 nodal point  x-rot      y-rot       z-rot       x-rot vel   y-rot vel   z-rot vel   x-rot acc   y-rot acc   z-rot acc
    22626 -1.70160E-03-1.02025E-04-1.84139E-04-1.01055E-03-6.49001E-05-7.00085E-05-1.18662E-03-1.79036E-04-6.79176E-05



 n o d a l   p r i n t   o u t   f o r   t i m e  s t e p   14602                              ( at time 7.2997694E+00 )

 nodal point  x-disp     y-disp      z-disp      x-vel       y-vel       z-vel      x-accl      y-accl      z-accl      x-coor      y-coor      z-coor
    22626 -3.14022E-03 2.58897E-01-5.07621E-01-2.77516E-03 1.67066E-01-3.70713E-02 2.12848E-03 2.13349E-01-3.40232E-03 4.65623E+00-2.79319E+01-4.54893E+01



 n o d a l   p r i n t   o u t   f o r   t i m e  s t e p   14602                              ( at time 7.2997694E+00 )

 nodal point  x-rot      y-rot       z-rot       x-rot vel   y-rot vel   z-rot vel   x-rot acc   y-rot acc   z-rot acc
    22626 -1.80978E-03-1.08486E-04-1.92115E-04-1.14547E-03-6.18304E-05-7.63141E-05-1.34930E-03 3.06996E-05-6.30627E-05



 n o d a l   p r i n t   o u t   f o r   t i m e  s t e p   14802                              ( at time 7.3997594E+00 )

 nodal point  x-disp     y-disp      z-disp      x-vel       y-vel       z-vel      x-accl      y-accl      z-accl      x-coor      y-coor      z-coor
    22626 -3.39873E-03 2.76712E-01-5.11313E-01-2.34844E-03 1.89130E-01-3.64721E-02 4.26765E-03 2.20664E-01 5.99188E-03 4.65598E+00-2.79141E+01-4.54930E+01



 n o d a l   p r i n t   o u t   f o r   t i m e  s t e p   14802                              ( at time 7.3997594E+00 )

 nodal point  x-rot      y-rot       z-rot       x-rot vel   y-rot vel   z-rot vel   x-rot acc   y-rot acc   z-rot acc
    22626 -1.93199E-03-1.14681E-04-1.99446E-04-1.29033E-03-6.68258E-05-7.27435E-05-1.44879E-03-4.99585E-05 3.57094E-05



 n o d a l   p r i n t   o u t   f o r   t i m e  s t e p   15002                              ( at time 7.4997494E+00 )

 nodal point  x-disp     y-disp      z-disp      x-vel       y-vel       z-vel      x-accl      y-accl      z-accl      x-coor      y-coor      z-coor
    22626 -3.62191E-03 2.96806E-01-5.14984E-01-2.30331E-03 2.13246E-01-3.73059E-02 4.51318E-04 2.41187E-01-8.33875E-03 4.65575E+00-2.78940E+01-4.54967E+01



 n o d a l   p r i n t   o u t   f o r   t i m e  s t e p   15002                              ( at time 7.4997494E+00 )

 nodal point  x-rot      y-rot       z-rot       x-rot vel   y-rot vel   z-rot vel   x-rot acc   y-rot acc   z-rot acc
    22626 -2.06915E-03-1.21296E-04-2.06398E-04-1.43992E-03-7.03726E-05-7.31485E-05-1.49606E-03-3.54712E-05-4.04982E-06



 n o d a l   p r i n t   o u t   f o r   t i m e  s t e p   15202                              ( at time 7.5997394E+00 )

 nodal point  x-disp     y-disp      z-disp      x-vel       y-vel       z-vel      x-accl      y-accl      z-accl      x-coor      y-coor      z-coor
    22626 -3.88084E-03 3.19379E-01-5.18854E-01-3.02016E-03 2.38422E-01-3.97044E-02-7.16924E-03 2.51787E-01-2.39869E-02 4.65549E+00-2.78715E+01-4.55006E+01



 n o d a l   p r i n t   o u t   f o r   t i m e  s t e p   15202                              ( at time 7.5997394E+00 )

 nodal point  x-rot      y-rot       z-rot       x-rot vel   y-rot vel   z-rot vel   x-rot acc   y-rot acc   z-rot acc
    22626 -2.22012E-03-1.27328E-04-2.12818E-04-1.58053E-03-5.54516E-05-5.58770E-05-1.40619E-03 1.49224E-04 1.72732E-04



 n o d a l   p r i n t   o u t   f o r   t i m e  s t e p   15402                              ( at time 7.6997294E+00 )

 nodal point  x-disp     y-disp      z-disp      x-vel       y-vel       z-vel      x-accl      y-accl      z-accl      x-coor      y-coor      z-coor
    22626 -4.19962E-03 3.44536E-01-5.22865E-01-2.74234E-03 2.64891E-01-4.06064E-02 2.77848E-03 2.64709E-01-9.02140E-03 4.65518E+00-2.78463E+01-4.55046E+01



 n o d a l   p r i n t   o u t   f o r   t i m e  s t e p   15402                              ( at time 7.6997294E+00 )

 nodal point  x-rot      y-rot       z-rot       x-rot vel   y-rot vel   z-rot vel   x-rot acc   y-rot acc   z-rot acc
    22626 -2.38795E-03-1.32133E-04-2.17786E-04-1.76681E-03-4.02700E-05-4.78712E-05-1.86302E-03 1.51831E-04 8.00662E-05



 n o d a l   p r i n t   o u t   f o r   t i m e  s t e p   15602                              ( at time 7.7997194E+00 )

 nodal point  x-disp     y-disp      z-disp      x-vel       y-vel       z-vel      x-accl      y-accl      z-accl      x-coor      y-coor      z-coor
    22626 -4.43670E-03 3.72400E-01-5.27033E-01-2.12502E-03 2.92582E-01-4.27940E-02 6.17381E-03 2.76946E-01-2.18776E-02 4.65494E+00-2.78184E+01-4.55088E+01



 n o d a l   p r i n t   o u t   f o r   t i m e  s t e p   15602                              ( at time 7.7997194E+00 )

 nodal point  x-rot      y-rot       z-rot       x-rot vel   y-rot vel   z-rot vel   x-rot acc   y-rot acc   z-rot acc
    22626 -2.57403E-03-1.35784E-04-2.21953E-04-1.94039E-03-3.59158E-05-3.99492E-05-1.73597E-03 4.35470E-05 7.92281E-05



 n o d a l   p r i n t   o u t   f o r   t i m e  s t e p   15802                              ( at time 7.8997094E+00 )

 nodal point  x-disp     y-disp      z-disp      x-vel       y-vel       z-vel      x-accl      y-accl      z-accl      x-coor      y-coor      z-coor
    22626 -4.66377E-03 4.03150E-01-5.31408E-01-2.97629E-03 3.22075E-01-4.49883E-02-8.51352E-03 2.94957E-01-2.19454E-02 4.65471E+00-2.77877E+01-4.55131E+01



 n o d a l   p r i n t   o u t   f o r   t i m e  s t e p   15802                              ( at time 7.8997094E+00 )

 nodal point  x-rot      y-rot       z-rot       x-rot vel   y-rot vel   z-rot vel   x-rot acc   y-rot acc   z-rot acc
    22626 -2.77713E-03-1.39319E-04-2.25255E-04-2.12425E-03-3.54838E-05-3.33737E-05-1.83875E-03 4.32061E-06 6.57610E-05



 n o d a l   p r i n t   o u t   f o r   t i m e  s t e p   16002                              ( at time 7.9996994E+00 )

 nodal point  x-disp     y-disp      z-disp      x-vel       y-vel       z-vel      x-accl      y-accl      z-accl      x-coor      y-coor      z-coor
    22626 -4.95040E-03 4.36889E-01-5.35994E-01-2.30575E-03 3.52148E-01-4.74810E-02 6.70599E-03 3.00757E-01-2.49294E-02 4.65442E+00-2.77539E+01-4.55177E+01



 n o d a l   p r i n t   o u t   f o r   t i m e  s t e p   16002                              ( at time 7.9996994E+00 )

 nodal point  x-rot      y-rot       z-rot       x-rot vel   y-rot vel   z-rot vel   x-rot acc   y-rot acc   z-rot acc
    22626 -2.99896E-03-1.41526E-04-2.28196E-04-2.31379E-03-6.63841E-06-2.46463E-05-1.89561E-03 2.88481E-04 8.72829E-05



 n o d a l   p r i n t   o u t   f o r   t i m e  s t e p   16202                              ( at time 8.0996894E+00 )

 nodal point  x-disp     y-disp      z-disp      x-vel       y-vel       z-vel      x-accl      y-accl      z-accl      x-coor      y-coor      z-coor
    22626 -5.14952E-03 4.73712E-01-5.40871E-01-1.63434E-03 3.83862E-01-5.03732E-02 6.71487E-03 3.17171E-01-2.89250E-02 4.65423E+00-2.77171E+01-4.55226E+01



 n o d a l   p r i n t   o u t   f o r   t i m e  s t e p   16202                              ( at time 8.0996894E+00 )

 nodal point  x-rot      y-rot       z-rot       x-rot vel   y-rot vel   z-rot vel   x-rot acc   y-rot acc   z-rot acc
    22626 -3.23980E-03-1.42252E-04-2.29385E-04-2.50397E-03-7.24765E-06-3.94861E-06-1.90197E-03-6.09303E-06 2.06998E-04



 n o d a l   p r i n t   o u t   f o r   t i m e  s t e p   16402                              ( at time 8.1996794E+00 )

 nodal point  x-disp     y-disp      z-disp      x-vel       y-vel       z-vel      x-accl      y-accl      z-accl      x-coor      y-coor      z-coor
    22626 -5.32105E-03 5.13722E-01-5.45966E-01-2.09029E-03 4.15925E-01-5.16441E-02-4.56000E-03 3.20667E-01-1.27106E-02 4.65405E+00-2.76771E+01-4.55277E+01



 n o d a l   p r i n t   o u t   f o r   t i m e  s t e p   16402                              ( at time 8.1996794E+00 )

 nodal point  x-rot      y-rot       z-rot       x-rot vel   y-rot vel   z-rot vel   x-rot acc   y-rot acc   z-rot acc
    22626 -3.50081E-03-1.42830E-04-2.29880E-04-2.71237E-03-5.13215E-06-2.35209E-06-2.08426E-03 2.11572E-05 1.59668E-05



 n o d a l   p r i n t   o u t   f o r   t i m e  s t e p   16602                              ( at time 8.2996694E+00 )

 nodal point  x-disp     y-disp      z-disp      x-vel       y-vel       z-vel      x-accl      y-accl      z-accl      x-coor      y-coor      z-coor
    22626 -5.48277E-03 5.56912E-01-5.51246E-01-9.33800E-04 4.48353E-01-5.42854E-02 1.15661E-02 3.24311E-01-2.64158E-02 4.65389E+00-2.76339E+01-4.55330E+01



 n o d a l   p r i n t   o u t   f o r   t i m e  s t e p   16602                              ( at time 8.2996694E+00 )

 nodal point  x-rot      y-rot       z-rot       x-rot vel   y-rot vel   z-rot vel   x-rot acc   y-rot acc   z-rot acc
    22626 -3.78225E-03-1.42253E-04-2.29327E-04-2.91108E-03 1.76896E-05 1.54039E-05-1.98730E-03 2.28240E-04 1.77578E-04



 n o d a l   p r i n t   o u t   f o r   t i m e  s t e p   16802                              ( at time 8.3996594E+00 )

 nodal point  x-disp     y-disp      z-disp      x-vel       y-vel       z-vel      x-accl      y-accl      z-accl      x-coor      y-coor      z-coor
    22626 -5.55579E-03 6.03440E-01-5.56796E-01-8.38147E-04 4.82632E-01-5.66127E-02 9.56627E-04 3.42824E-01-2.32754E-02 4.65382E+00-2.75874E+01-4.55385E+01



 n o d a l   p r i n t   o u t   f o r   t i m e  s t e p   16802                              ( at time 8.3996594E+00 )

 nodal point  x-rot      y-rot       z-rot       x-rot vel   y-rot vel   z-rot vel   x-rot acc   y-rot acc   z-rot acc
    22626 -4.08352E-03-1.40166E-04-2.27155E-04-3.11883E-03 1.90904E-05 2.26663E-05-2.07764E-03 1.40095E-05 7.26311E-05



 n o d a l   p r i n t   o u t   f o r   t i m e  s t e p   17002                              ( at time 8.4996494E+00 )

 nodal point  x-disp     y-disp      z-disp      x-vel       y-vel       z-vel      x-accl      y-accl      z-accl      x-coor      y-coor      z-coor
    22626 -5.65081E-03 6.53387E-01-5.62562E-01-9.85195E-04 5.16761E-01-5.87215E-02-1.47063E-03 3.41326E-01-2.10895E-02 4.65372E+00-2.75374E+01-4.55443E+01



 n o d a l   p r i n t   o u t   f o r   t i m e  s t e p   17002                              ( at time 8.4996494E+00 )

 nodal point  x-rot      y-rot       z-rot       x-rot vel   y-rot vel   z-rot vel   x-rot acc   y-rot acc   z-rot acc
    22626 -4.40694E-03-1.38234E-04-2.25530E-04-3.34559E-03 2.31166E-05 1.97039E-05-2.26782E-03 4.02665E-05-2.96267E-05



 n o d a l   p r i n t   o u t   f o r   t i m e  s t e p   17202                              ( at time 8.5996394E+00 )

 nodal point  x-disp     y-disp      z-disp      x-vel       y-vel       z-vel      x-accl      y-accl      z-accl      x-coor      y-coor      z-coor
    22626 -5.73455E-03 7.06826E-01-5.68565E-01-5.64810E-04 5.52059E-01-6.11584E-02 4.20428E-03 3.53013E-01-2.43719E-02 4.65364E+00-2.74840E+01-4.55503E+01



 n o d a l   p r i n t   o u t   f o r   t i m e  s t e p   17202                              ( at time 8.5996394E+00 )

 nodal point  x-rot      y-rot       z-rot       x-rot vel   y-rot vel   z-rot vel   x-rot acc   y-rot acc   z-rot acc
    22626 -4.75278E-03-1.35825E-04-2.22676E-04-3.56636E-03 3.10348E-05 3.56242E-05-2.20801E-03 7.91896E-05 1.59218E-04



 n o d a l   p r i n t   o u t   f o r   t i m e  s t e p   17402                              ( at time 8.6996293E+00 )

 nodal point  x-disp     y-disp      z-disp      x-vel       y-vel       z-vel      x-accl      y-accl      z-accl      x-coor      y-coor      z-coor
    22626 -5.74612E-03 7.63785E-01-5.74706E-01-1.95510E-04 5.86948E-01-6.18341E-02 3.69334E-03 3.48919E-01-6.75748E-03 4.65363E+00-2.74270E+01-4.55564E+01



 n o d a l   p r i n t   o u t   f o r   t i m e  s t e p   17402                              ( at time 8.6996293E+00 )

 nodal point  x-rot      y-rot       z-rot       x-rot vel   y-rot vel   z-rot vel   x-rot acc   y-rot acc   z-rot acc
    22626 -5.12046E-03-1.32229E-04-2.18873E-04-3.79034E-03 3.99305E-05 3.41788E-05-2.24001E-03 8.89656E-05-1.44551E-05



 n o d a l   p r i n t   o u t   f o r   t i m e  s t e p   17602                              ( at time 8.7996193E+00 )

 nodal point  x-disp     y-disp      z-disp      x-vel       y-vel       z-vel      x-accl      y-accl      z-accl      x-coor      y-coor      z-coor
    22626 -5.75103E-03 8.24277E-01-5.80936E-01-1.34842E-04 6.22509E-01-6.26444E-02 6.06743E-04 3.55646E-01-8.10407E-03 4.65362E+00-2.73666E+01-4.55627E+01



 n o d a l   p r i n t   o u t   f o r   t i m e  s t e p   17602                              ( at time 8.7996193E+00 )

 nodal point  x-rot      y-rot       z-rot       x-rot vel   y-rot vel   z-rot vel   x-rot acc   y-rot acc   z-rot acc
    22626 -5.51112E-03-1.28423E-04-2.15563E-04-4.01763E-03 3.55015E-05 3.00531E-05-2.27305E-03-4.42941E-05-4.12612E-05



 n o d a l   p r i n t   o u t   f o r   t i m e  s t e p   17802                              ( at time 8.8996093E+00 )

 nodal point  x-disp     y-disp      z-disp      x-vel       y-vel       z-vel      x-accl      y-accl      z-accl      x-coor      y-coor      z-coor
    22626 -5.74588E-03 8.88340E-01-5.87202E-01 5.10022E-04 6.58526E-01-6.31942E-02 6.44929E-03 3.60211E-01-5.49826E-03 4.65363E+00-2.73025E+01-4.55689E+01



 n o d a l   p r i n t   o u t   f o r   t i m e  s t e p   17802                              ( at time 8.8996093E+00 )

 nodal point  x-rot      y-rot       z-rot       x-rot vel   y-rot vel   z-rot vel   x-rot acc   y-rot acc   z-rot acc
    22626 -5.92403E-03-1.25284E-04-2.11961E-04-4.24767E-03 3.66719E-05 3.79150E-05-2.30066E-03 1.17053E-05 7.86267E-05



 n o d a l   p r i n t   o u t   f o r   t i m e  s t e p   18002                              ( at time 8.9995993E+00 )

 nodal point  x-disp     y-disp      z-disp      x-vel       y-vel       z-vel      x-accl      y-accl      z-accl      x-coor      y-coor      z-coor
    22626 -5.66939E-03 9.56002E-01-5.93484E-01 8.08880E-04 6.94066E-01-6.20543E-02 2.98888E-03 3.55433E-01 1.14004E-02 4.65371E+00-2.72348E+01-4.55752E+01



 n o d a l   p r i n t   o u t   f o r   t i m e  s t e p   18002                              ( at time 8.9995993E+00 )

 nodal point  x-rot      y-rot       z-rot       x-rot vel   y-rot vel   z-rot vel   x-rot acc   y-rot acc   z-rot acc
    22626 -6.36041E-03-1.20277E-04-2.07566E-04-4.47134E-03 4.95023E-05 4.08365E-05-2.23698E-03 1.28317E-04 2.92182E-05



 n o d a l   p r i n t   o u t   f o r   t i m e  s t e p   18202                              ( at time 9.0995893E+00 )

 nodal point  x-disp     y-disp      z-disp      x-vel       y-vel       z-vel      x-accl      y-accl      z-accl      x-coor      y-coor      z-coor
    22626 -5.60024E-03 1.02718E+00-5.99580E-01 8.95678E-04 7.29589E-01-5.99099E-02 8.68070E-04 3.55262E-01 2.14456E-02 4.65377E+00-2.71636E+01-4.55813E+01



 n o d a l   p r i n t   o u t   f o r   t i m e  s t e p   18202                              ( at time 9.0995893E+00 )

 nodal point  x-rot      y-rot       z-rot       x-rot vel   y-rot vel   z-rot vel   x-rot acc   y-rot acc   z-rot acc
    22626 -6.82037E-03-1.16298E-04-2.03409E-04-4.71876E-03 3.79071E-05 3.89330E-05-2.47441E-03-1.15964E-04-1.90372E-05



 n o d a l   p r i n t   o u t   f o r   t i m e  s t e p   18402                              ( at time 9.1995793E+00 )

 nodal point  x-disp     y-disp      z-disp      x-vel       y-vel       z-vel      x-accl      y-accl      z-accl      x-coor      y-coor      z-coor
    22626 -5.50587E-03 1.10192E+00-6.05507E-01 1.09750E-03 7.65383E-01-5.82131E-02 2.01838E-03 3.57977E-01 1.69699E-02 4.65387E+00-2.70889E+01-4.55872E+01



 n o d a l   p r i n t   o u t   f o r   t i m e  s t e p   18402                              ( at time 9.1995793E+00 )

 nodal point  x-rot      y-rot       z-rot       x-rot vel   y-rot vel   z-rot vel   x-rot acc   y-rot acc   z-rot acc
    22626 -7.30445E-03-1.11846E-04-1.99150E-04-4.95881E-03 4.78297E-05 3.73077E-05-2.40073E-03 9.92358E-05-1.62542E-05



 n o d a l   p r i n t   o u t   f o r   t i m e  s t e p   18602                              ( at time 9.2995693E+00 )

 nodal point  x-disp     y-disp      z-disp      x-vel       y-vel       z-vel      x-accl      y-accl      z-accl      x-coor      y-coor      z-coor
    22626 -5.36870E-03 1.18023E+00-6.11160E-01 1.37491E-03 8.00912E-01-5.49530E-02 2.77442E-03 3.55327E-01 3.26045E-02 4.65401E+00-2.70106E+01-4.55929E+01



 n o d a l   p r i n t   o u t   f o r   t i m e  s t e p   18602                              ( at time 9.2995693E+00 )

 nodal point  x-rot      y-rot       z-rot       x-rot vel   y-rot vel   z-rot vel   x-rot acc   y-rot acc   z-rot acc
    22626 -7.81203E-03-1.07454E-04-1.95586E-04-5.19306E-03 3.33754E-05 2.89373E-05-2.34274E-03-1.44558E-04-8.37124E-05



 n o d a l   p r i n t   o u t   f o r   t i m e  s t e p   18802                              ( at time 9.3995593E+00 )

 nodal point  x-disp     y-disp      z-disp      x-vel       y-vel       z-vel      x-accl      y-accl      z-accl      x-coor      y-coor      z-coor
    22626 -5.21550E-03 1.26212E+00-6.16486E-01 1.90440E-03 8.36724E-01-5.14202E-02 5.29543E-03 3.58162E-01 3.53311E-02 4.65416E+00-2.69287E+01-4.55982E+01



 n o d a l   p r i n t   o u t   f o r   t i m e  s t e p   18802                              ( at time 9.3995593E+00 )

 nodal point  x-rot      y-rot       z-rot       x-rot vel   y-rot vel   z-rot vel   x-rot acc   y-rot acc   z-rot acc
    22626 -8.34303E-03-1.04164E-04-1.91773E-04-5.43234E-03 3.47407E-05 3.26826E-05-2.39304E-03 1.36542E-05 3.74570E-05



 n o d a l   p r i n t   o u t   f o r   t i m e  s t e p   19002                              ( at time 9.4995493E+00 )

 nodal point  x-disp     y-disp      z-disp      x-vel       y-vel       z-vel      x-accl      y-accl      z-accl      x-coor      y-coor      z-coor
    22626 -5.00041E-03 1.34754E+00-6.21377E-01 1.84585E-03 8.71490E-01-4.61544E-02-5.85508E-04 3.47692E-01 5.26635E-02 4.65437E+00-2.68433E+01-4.56031E+01



 n o d a l   p r i n t   o u t   f o r   t i m e  s t e p   19002                              ( at time 9.4995493E+00 )

 nodal point  x-rot      y-rot       z-rot       x-rot vel   y-rot vel   z-rot vel   x-rot acc   y-rot acc   z-rot acc
    22626 -8.89911E-03-1.00598E-04-1.88528E-04-5.67906E-03 3.55590E-05 3.18432E-05-2.46743E-03 8.18402E-06-8.39512E-06



 n o d a l   p r i n t   o u t   f o r   t i m e  s t e p   19202                              ( at time 9.5995393E+00 )

 nodal point  x-disp     y-disp      z-disp      x-vel       y-vel       z-vel      x-accl      y-accl      z-accl      x-coor      y-coor      z-coor
    22626 -4.82558E-03 1.43647E+00-6.25704E-01 1.33903E-03 9.06824E-01-4.04037E-02-5.06866E-03 3.53370E-01 5.75125E-02 4.65455E+00-2.67544E+01-4.56074E+01



 n o d a l   p r i n t   o u t   f o r   t i m e  s t e p   19202                              ( at time 9.5995393E+00 )

 nodal point  x-rot      y-rot       z-rot       x-rot vel   y-rot vel   z-rot vel   x-rot acc   y-rot acc   z-rot acc
    22626 -9.47890E-03-9.72447E-05-1.85080E-04-5.91333E-03 3.74942E-05 3.39147E-05-2.34296E-03 1.93540E-05 2.07166E-05



 n o d a l   p r i n t   o u t   f o r   t i m e  s t e p   19402                              ( at time 9.6995293E+00 )

 nodal point  x-disp     y-disp      z-disp      x-vel       y-vel       z-vel      x-accl      y-accl      z-accl      x-coor      y-coor      z-coor
    22626 -4.68554E-03 1.52893E+00-6.29462E-01 1.63345E-03 9.41586E-01-3.54470E-02 2.94448E-03 3.47657E-01 4.95720E-02 4.65469E+00-2.66619E+01-4.56112E+01



 n o d a l   p r i n t   o u t   f o r   t i m e  s t e p   19402                              ( at time 9.6995293E+00 )

 nodal point  x-rot      y-rot       z-rot       x-rot vel   y-rot vel   z-rot vel   x-rot acc   y-rot acc   z-rot acc
    22626 -1.00817E-02-9.39244E-05-1.82248E-04-6.15183E-03 3.06308E-05 2.87926E-05-2.38523E-03-6.86412E-05-5.12256E-05



 n o d a l   p r i n t   o u t   f o r   t i m e  s t e p   19602                              ( at time 9.7995193E+00 )

 nodal point  x-disp     y-disp      z-disp      x-vel       y-vel       z-vel      x-accl      y-accl      z-accl      x-coor      y-coor      z-coor
    22626 -4.51393E-03 1.62485E+00-6.32657E-01 1.77957E-03 9.76592E-01-2.92104E-02 1.46130E-03 3.50096E-01 6.23724E-02 4.65486E+00-2.65660E+01-4.56144E+01



 n o d a l   p r i n t   o u t   f o r   t i m e  s t e p   19602                              ( at time 9.7995193E+00 )

 nodal point  x-rot      y-rot       z-rot       x-rot vel   y-rot vel   z-rot vel   x-rot acc   y-rot acc   z-rot acc
    22626 -1.07078E-02-9.14276E-05-1.80225E-04-6.38116E-03 2.06678E-05 2.16064E-05-2.29348E-03-9.96404E-05-7.18699E-05



 n o d a l   p r i n t   o u t   f o r   t i m e  s t e p   19802                              ( at time 9.8995093E+00 )

 nodal point  x-disp     y-disp      z-disp      x-vel       y-vel       z-vel      x-accl      y-accl      z-accl      x-coor      y-coor      z-coor
    22626 -4.34890E-03 1.72425E+00-6.35179E-01 1.69823E-03 1.01103E+00-2.15948E-02-8.13424E-04 3.44397E-01 7.61639E-02 4.65503E+00-2.64666E+01-4.56169E+01



 n o d a l   p r i n t   o u t   f o r   t i m e  s t e p   19802                              ( at time 9.8995093E+00 )

 nodal point  x-rot      y-rot       z-rot       x-rot vel   y-rot vel   z-rot vel   x-rot acc   y-rot acc   z-rot acc
    22626 -1.13568E-02-8.92550E-05-1.78830E-04-6.60113E-03 1.96786E-05 9.33591E-06-2.19998E-03-9.89263E-06-1.22717E-04



 n o d a l   p r i n t   o u t   f o r   t i m e  s t e p   20003                              ( at time 9.9999992E+00 )

 nodal point  x-disp     y-disp      z-disp      x-vel       y-vel       z-vel      x-accl      y-accl      z-accl      x-coor      y-coor      z-coor
[...]
    22626 -4.67708E-02-2.13148E-04-8.05458E-04-8.37337E-03-1.24563E-04-3.51795E-04 4.88202E-04-2.68548E-04-2.70547E-04



 n o d a l   p r i n t   o u t   f o r   t i m e  s t e p   28203                              ( at time 1.4099589E+01 )

 nodal point  x-disp     y-disp      z-disp      x-vel       y-vel       z-vel      x-accl      y-accl      z-accl      x-coor      y-coor      z-coor
    22626 -4.98927E-02 7.51603E+00 1.39621E+00-2.25772E-02 1.38312E+00 1.26241E+00-1.83921E-03-9.64992E-02 4.09030E-01 4.60948E+00-2.06748E+01-4.35855E+01



 n o d a l   p r i n t   o u t   f o r   t i m e  s t e p   28203                              ( at time 1.4099589E+01 )

 nodal point  x-rot      y-rot       z-rot       x-rot vel   y-rot vel   z-rot vel   x-rot acc   y-rot acc   z-rot acc
    22626 -4.76049E-02-2.26253E-04-8.41887E-04-8.32372E-03-1.36081E-04-3.53263E-04 4.96552E-04-1.15186E-04-1.46764E-05



 n o d a l   p r i n t   o u t   f o r   t i m e  s t e p   28403                              ( at time 1.4199579E+01 )

 nodal point  x-disp     y-disp      z-disp      x-vel       y-vel       z-vel      x-accl      y-accl      z-accl      x-coor      y-coor      z-coor
    22626 -5.20431E-02 7.65383E+00 1.52462E+00-2.14305E-02 1.37338E+00 1.30535E+00 1.14684E-02-9.73645E-02 4.29528E-01 4.60733E+00-2.05370E+01-4.34571E+01



 n o d a l   p r i n t   o u t   f o r   t i m e  s t e p   28403                              ( at time 1.4199579E+01 )

 nodal point  x-rot      y-rot       z-rot       x-rot vel   y-rot vel   z-rot vel   x-rot acc   y-rot acc   z-rot acc
    22626 -4.84341E-02-2.39158E-04-8.77151E-04-8.25289E-03-1.40753E-04-3.59219E-04 7.08333E-04-4.67306E-05-5.95618E-05



 n o d a l   p r i n t   o u t   f o r   t i m e  s t e p   28603                              ( at time 1.4299569E+01 )

 nodal point  x-disp     y-disp      z-disp      x-vel       y-vel       z-vel      x-accl      y-accl      z-accl      x-coor      y-coor      z-coor
    22626 -5.42231E-02 7.79060E+00 1.65708E+00-2.21563E-02 1.36404E+00 1.34500E+00-7.25812E-03-9.34564E-02 3.96469E-01 4.60515E+00-2.04002E+01-4.33246E+01



 n o d a l   p r i n t   o u t   f o r   t i m e  s t e p   28603                              ( at time 1.4299569E+01 )

 nodal point  x-rot      y-rot       z-rot       x-rot vel   y-rot vel   z-rot vel   x-rot acc   y-rot acc   z-rot acc
    22626 -4.92583E-02-2.53175E-04-9.14177E-04-8.20675E-03-1.42972E-04-3.82099E-04 4.61526E-04-2.21904E-05-2.28826E-04



 n o d a l   p r i n t   o u t   f o r   t i m e  s t e p   28803                              ( at time 1.4399559E+01 )

 nodal point  x-disp     y-disp      z-disp      x-vel       y-vel       z-vel      x-accl      y-accl      z-accl      x-coor      y-coor      z-coor
    22626 -5.65129E-02 7.92643E+00 1.79353E+00-2.23984E-02 1.35400E+00 1.38435E+00-2.42166E-03-1.00341E-01 3.93577E-01 4.60286E+00-2.02644E+01-4.31882E+01



 n o d a l   p r i n t   o u t   f o r   t i m e  s t e p   28803                              ( at time 1.4399559E+01 )

 nodal point  x-rot      y-rot       z-rot       x-rot vel   y-rot vel   z-rot vel   x-rot acc   y-rot acc   z-rot acc
    22626 -5.00791E-02-2.68453E-04-9.51916E-04-8.18049E-03-1.61711E-04-3.77561E-04 2.62548E-04-1.87411E-04 4.53882E-05



 n o d a l   p r i n t   o u t   f o r   t i m e  s t e p   29003                              ( at time 1.4499549E+01 )

 nodal point  x-disp     y-disp      z-disp      x-vel       y-vel       z-vel      x-accl      y-accl      z-accl      x-coor      y-coor      z-coor
    22626 -5.87184E-02 8.06140E+00 1.93384E+00-2.23818E-02 1.34529E+00 1.42233E+00 1.66127E-04-8.71639E-02 3.79815E-01 4.60066E+00-2.01294E+01-4.30479E+01



 n o d a l   p r i n t   o u t   f o r   t i m e  s t e p   29003                              ( at time 1.4499549E+01 )

 nodal point  x-rot      y-rot       z-rot       x-rot vel   y-rot vel   z-rot vel   x-rot acc   y-rot acc   z-rot acc
    22626 -5.08950E-02-2.83403E-04-9.89745E-04-8.11801E-03-1.55686E-04-3.87663E-04 6.24860E-04 6.02628E-05-1.01039E-04



 n o d a l   p r i n t   o u t   f o r   t i m e  s t e p   29203                              ( at time 1.4599539E+01 )

 nodal point  x-disp     y-disp      z-disp      x-vel       y-vel       z-vel      x-accl      y-accl      z-accl      x-coor      y-coor      z-coor
    22626 -6.09183E-02 8.19549E+00 2.07789E+00-2.19534E-02 1.33706E+00 1.45973E+00 4.28392E-03-8.23331E-02 3.74024E-01 4.59846E+00-1.99953E+01-4.29038E+01



 n o d a l   p r i n t   o u t   f o r   t i m e  s t e p   29203                              ( at time 1.4599539E+01 )

 nodal point  x-rot      y-rot       z-rot       x-rot vel   y-rot vel   z-rot vel   x-rot acc   y-rot acc   z-rot acc
    22626 -5.17073E-02-2.97778E-04-1.02750E-03-8.09602E-03-1.50033E-04-3.77066E-04 2.19973E-04 5.65281E-05 1.05983E-04



 n o d a l   p r i n t   o u t   f o r   t i m e  s t e p   29403                              ( at time 1.4699529E+01 )

 nodal point  x-disp     y-disp      z-disp      x-vel       y-vel       z-vel      x-accl      y-accl      z-accl      x-coor      y-coor      z-coor
    22626 -6.31448E-02 8.32878E+00 2.22565E+00-2.21838E-02 1.32940E+00 1.49596E+00-2.30406E-03-7.65604E-02 3.62379E-01 4.59623E+00-1.98620E+01-4.27561E+01



 n o d a l   p r i n t   o u t   f o r   t i m e  s t e p   29403                              ( at time 1.4699529E+01 )

 nodal point  x-rot      y-rot       z-rot       x-rot vel   y-rot vel   z-rot vel   x-rot acc   y-rot acc   z-rot acc
    22626 -5.25176E-02-3.13405E-04-1.06462E-03-8.06111E-03-1.60964E-04-3.84209E-04 3.49142E-04-1.09316E-04-7.14391E-05



 n o d a l   p r i n t   o u t   f o r   t i m e  s t e p   29604                              ( at time 1.4800019E+01 )

 nodal point  x-disp     y-disp      z-disp      x-vel       y-vel       z-vel      x-accl      y-accl      z-accl      x-coor      y-coor      z-coor
    22626 -6.54215E-02 8.46202E+00 2.37769E+00-2.37290E-02 1.32148E+00 1.53031E+00-1.53764E-02-7.87958E-02 3.41831E-01 4.59395E+00-1.97288E+01-4.26040E+01



 n o d a l   p r i n t   o u t   f o r   t i m e  s t e p   29604                              ( at time 1.4800019E+01 )

 nodal point  x-rot      y-rot       z-rot       x-rot vel   y-rot vel   z-rot vel   x-rot acc   y-rot acc   z-rot acc
    22626 -5.33284E-02-3.29410E-04-1.10312E-03-8.05171E-03-1.52210E-04-3.99197E-04 9.34932E-05 8.71071E-05-1.49142E-04



 n o d a l   p r i n t   o u t   f o r   t i m e  s t e p   29804                              ( at time 1.4900009E+01 )

 nodal point  x-disp     y-disp      z-disp      x-vel       y-vel       z-vel      x-accl      y-accl      z-accl      x-coor      y-coor      z-coor
    22626 -6.76525E-02 8.59379E+00 2.53248E+00-2.17149E-02 1.31369E+00 1.56380E+00 2.01427E-02-7.79278E-02 3.34952E-01 4.59172E+00-1.95970E+01-4.24492E+01



 n o d a l   p r i n t   o u t   f o r   t i m e  s t e p   29804                              ( at time 1.4900009E+01 )

 nodal point  x-rot      y-rot       z-rot       x-rot vel   y-rot vel   z-rot vel   x-rot acc   y-rot acc   z-rot acc
    22626 -5.41330E-02-3.44987E-04-1.14175E-03-8.05407E-03-1.70944E-04-3.99808E-04-2.36114E-05-1.87357E-04-6.11271E-06



 n o d a l   p r i n t   o u t   f o r   t i m e  s t e p   30004                              ( at time 1.4999999E+01 )

 nodal point  x-disp     y-disp      z-disp      x-vel       y-vel       z-vel      x-accl      y-accl      z-accl      x-coor      y-coor      z-coor
    22626 -6.99086E-02 8.72494E+00 2.69060E+00-2.24882E-02 1.30860E+00 1.59655E+00-7.73355E-03-5.09159E-02 3.27520E-01 4.58947E+00-1.94659E+01-4.22911E+01



 n o d a l   p r i n t   o u t   f o r   t i m e  s t e p   30004                              ( at time 1.4999999E+01 )

 nodal point  x-rot      y-rot       z-rot       x-rot vel   y-rot vel   z-rot vel   x-rot acc   y-rot acc   z-rot acc
    22626 -5.49365E-02-3.61163E-04-1.17879E-03-8.03371E-03-1.62911E-04-3.86475E-04 2.03654E-04 8.03376E-05 1.33347E-04



 n o d a l   p r i n t   o u t   f o r   t i m e  s t e p   30204                              ( at time 1.5099989E+01 )

 nodal point  x-disp     y-disp      z-disp      x-vel       y-vel       z-vel      x-accl      y-accl      z-accl      x-coor      y-coor      z-coor
    22626 -7.21560E-02 8.85558E+00 2.85187E+00-2.28268E-02 1.30394E+00 1.62797E+00-3.38596E-03-4.66549E-02 3.14210E-01 4.58722E+00-1.93353E+01-4.21298E+01



 n o d a l   p r i n t   o u t   f o r   t i m e  s t e p   30204                              ( at time 1.5099989E+01 )

 nodal point  x-rot      y-rot       z-rot       x-rot vel   y-rot vel   z-rot vel   x-rot acc   y-rot acc   z-rot acc
    22626 -5.57394E-02-3.77462E-04-1.21643E-03-8.02098E-03-1.70767E-04-3.70690E-04 1.27278E-04-7.85612E-05 1.57858E-04



 n o d a l   p r i n t   o u t   f o r   t i m e  s t e p   30404                              ( at time 1.5199979E+01 )

 nodal point  x-disp     y-disp      z-disp      x-vel       y-vel       z-vel      x-accl      y-accl      z-accl      x-coor      y-coor      z-coor
    22626 -7.44152E-02 8.98563E+00 3.01612E+00-2.28649E-02 1.29902E+00 1.65783E+00-3.81397E-04-4.91979E-02 2.98671E-01 4.58496E+00-1.92052E+01-4.19656E+01



 n o d a l   p r i n t   o u t   f o r   t i m e  s t e p   30404                              ( at time 1.5199979E+01 )

 nodal point  x-rot      y-rot       z-rot       x-rot vel   y-rot vel   z-rot vel   x-rot acc   y-rot acc   z-rot acc
    22626 -5.65418E-02-3.93164E-04-1.25460E-03-8.00522E-03-1.49641E-04-3.58079E-04 1.57624E-04 2.11280E-04 1.26123E-04



 n o d a l   p r i n t   o u t   f o r   t i m e  s t e p   30604                              ( at time 1.5299969E+01 )

 nodal point  x-disp     y-disp      z-disp      x-vel       y-vel       z-vel      x-accl      y-accl      z-accl      x-coor      y-coor      z-coor
    22626 -7.66997E-02 9.11533E+00 3.18326E+00-2.16442E-02 1.29612E+00 1.68529E+00 1.22086E-02-2.89565E-02 2.74555E-01 4.58268E+00-1.90755E+01-4.17985E+01



 n o d a l   p r i n t   o u t   f o r   t i m e  s t e p   30604                              ( at time 1.5299969E+01 )

 nodal point  x-rot      y-rot       z-rot       x-rot vel   y-rot vel   z-rot vel   x-rot acc   y-rot acc   z-rot acc
    22626 -5.73449E-02-4.09672E-04-1.29173E-03-8.02939E-03-1.78796E-04-3.70873E-04-2.41665E-04-2.91585E-04-1.27951E-04



 n o d a l   p r i n t   o u t   f o r   t i m e  s t e p   30804                              ( at time 1.5399959E+01 )

 nodal point  x-disp     y-disp      z-disp      x-vel       y-vel       z-vel      x-accl      y-accl      z-accl      x-coor      y-coor      z-coor
    22626 -7.89421E-02 9.24469E+00 3.35307E+00-2.31324E-02 1.29250E+00 1.71183E+00-1.48834E-02-3.62504E-02 2.65496E-01 4.58043E+00-1.89461E+01-4.16286E+01



 n o d a l   p r i n t   o u t   f o r   t i m e  s t e p   30804                              ( at time 1.5399959E+01 )

 nodal point  x-rot      y-rot       z-rot       x-rot vel   y-rot vel   z-rot vel   x-rot acc   y-rot acc   z-rot acc
    22626 -5.81497E-02-4.26273E-04-1.32873E-03-8.03039E-03-1.58541E-04-3.73572E-04-1.00220E-05 2.02570E-04-2.69910E-05



 n o d a l   p r i n t   o u t   f o r   t i m e  s t e p   31004                              ( at time 1.5499949E+01 )

 nodal point  x-disp     y-disp      z-disp      x-vel       y-vel       z-vel      x-accl      y-accl      z-accl      x-coor      y-coor      z-coor
    22626 -8.12166E-02 9.37381E+00 3.52547E+00-2.31270E-02 1.29040E+00 1.73710E+00 5.41712E-05-2.09734E-02 2.52705E-01 4.57816E+00-1.88170E+01-4.14563E+01



 n o d a l   p r i n t   o u t   f o r   t i m e  s t e p   31004                              ( at time 1.5499949E+01 )

 nodal point  x-rot      y-rot       z-rot       x-rot vel   y-rot vel   z-rot vel   x-rot acc   y-rot acc   z-rot acc
    22626 -5.89546E-02-4.42659E-04-1.36657E-03-8.04956E-03-1.69138E-04-3.72556E-04-1.91741E-04-1.05976E-04 1.01591E-05



 n o d a l   p r i n t   o u t   f o r   t i m e  s t e p   31204                              ( at time 1.5599939E+01 )

 nodal point  x-disp     y-disp      z-disp      x-vel       y-vel       z-vel      x-accl      y-accl      z-accl      x-coor      y-coor      z-coor
    22626 -8.35221E-02 9.50275E+00 3.70030E+00-2.29858E-02 1.28882E+00 1.75974E+00 1.41132E-03-1.57789E-02 2.26426E-01 4.57585E+00-1.86881E+01-4.12814E+01



 n o d a l   p r i n t   o u t   f o r   t i m e  s t e p   31204                              ( at time 1.5599939E+01 )

 nodal point  x-rot      y-rot       z-rot       x-rot vel   y-rot vel   z-rot vel   x-rot acc   y-rot acc   z-rot acc
    22626 -5.97630E-02-4.60187E-04-1.40409E-03-8.10556E-03-1.65963E-04-3.59061E-04-5.60005E-04 3.17492E-05 1.34963E-04



 n o d a l   p r i n t   o u t   f o r   t i m e  s t e p   31404                              ( at time 1.5699929E+01 )

 nodal point  x-disp     y-disp      z-disp      x-vel       y-vel       z-vel      x-accl      y-accl      z-accl      x-coor      y-coor      z-coor
    22626 -8.57990E-02 9.63158E+00 3.87742E+00-2.30151E-02 1.28789E+00 1.78116E+00-2.92185E-04-9.29330E-03 2.14192E-01 4.57358E+00-1.85592E+01-4.11043E+01



 n o d a l   p r i n t   o u t   f o r   t i m e  s t e p   31404                              ( at time 1.5699929E+01 )

 nodal point  x-rot      y-rot       z-rot       x-rot vel   y-rot vel   z-rot vel   x-rot acc   y-rot acc   z-rot acc
    22626 -6.05740E-02-4.77392E-04-1.44141E-03-8.11403E-03-1.73400E-04-3.72509E-04-8.47310E-05-7.43693E-05-1.34493E-04



 n o d a l   p r i n t   o u t   f o r   t i m e  s t e p   31604                              ( at time 1.5799919E+01 )

 nodal point  x-disp     y-disp      z-disp      x-vel       y-vel       z-vel      x-accl      y-accl      z-accl      x-coor      y-coor      z-coor
    22626 -8.82095E-02 9.76062E+00 4.05636E+00-2.33749E-02 1.29017E+00 1.79879E+00-3.59857E-03 2.28128E-02 1.76315E-01 4.57117E+00-1.84302E+01-4.09254E+01



 n o d a l   p r i n t   o u t   f o r   t i m e  s t e p   31604                              ( at time 1.5799919E+01 )

 nodal point  x-rot      y-rot       z-rot       x-rot vel   y-rot vel   z-rot vel   x-rot acc   y-rot acc   z-rot acc
    22626 -6.13880E-02-4.95981E-04-1.47990E-03-8.20109E-03-1.98356E-04-3.91847E-04-8.70652E-04-2.49592E-04-1.93401E-04



 n o d a l   p r i n t   o u t   f o r   t i m e  s t e p   31804                              ( at time 1.5899909E+01 )

 nodal point  x-disp     y-disp      z-disp      x-vel       y-vel       z-vel      x-accl      y-accl      z-accl      x-coor      y-coor      z-coor
    22626 -9.06316E-02 9.88913E+00 4.23789E+00-2.45536E-02 1.28583E+00 1.82620E+00-1.17881E-02-4.34073E-02 2.74099E-01 4.56874E+00-1.83017E+01-4.07438E+01



 n o d a l   p r i n t   o u t   f o r   t i m e  s t e p   31804                              ( at time 1.5899909E+01 )

 nodal point  x-rot      y-rot       z-rot       x-rot vel   y-rot vel   z-rot vel   x-rot acc   y-rot acc   z-rot acc
    22626 -6.22080E-02-5.15348E-04-1.51904E-03-8.29378E-03-1.84490E-04-4.04086E-04-9.27048E-04 1.38684E-04-1.22399E-04



 n o d a l   p r i n t   o u t   f o r   t i m e  s t e p   32004                              ( at time 1.5999899E+01 )

 nodal point  x-disp     y-disp      z-disp      x-vel       y-vel       z-vel      x-accl      y-accl      z-accl      x-coor      y-coor      z-coor
    22626 -9.30928E-02 1.00179E+01 4.42115E+00-2.66179E-02 1.28864E+00 1.83959E+00-2.06455E-02 2.80349E-02 1.33977E-01 4.56628E+00-1.81729E+01-4.05606E+01



 n o d a l   p r i n t   o u t   f o r   t i m e  s t e p   32004                              ( at time 1.5999899E+01 )

 nodal point  x-rot      y-rot       z-rot       x-rot vel   y-rot vel   z-rot vel   x-rot acc   y-rot acc   z-rot acc
    22626 -6.30369E-02-5.34045E-04-1.55921E-03-8.33793E-03-2.12451E-04-4.12573E-04-4.41557E-04-2.79640E-04-8.48785E-05



 n o d a l   p r i n t   o u t   f o r   t i m e  s t e p   32204                              ( at time 1.6099889E+01 )

 nodal point  x-disp     y-disp      z-disp      x-vel       y-vel       z-vel      x-accl      y-accl      z-accl      x-coor      y-coor      z-coor
    22626 -9.56467E-02 1.01465E+01 4.60625E+00-2.60265E-02 1.28478E+00 1.86284E+00 5.91502E-03-3.85434E-02 2.32527E-01 4.56373E+00-1.80443E+01-4.03755E+01



 n o d a l   p r i n t   o u t   f o r   t i m e  s t e p   32204                              ( at time 1.6099889E+01 )

 nodal point  x-rot      y-rot       z-rot       x-rot vel   y-rot vel   z-rot vel   x-rot acc   y-rot acc   z-rot acc
    22626 -6.38716E-02-5.54975E-04-1.59960E-03-8.36713E-03-2.24235E-04-4.18710E-04-2.91955E-04-1.17859E-04-6.13792E-05



 n o d a l   p r i n t   o u t   f o r   t i m e  s t e p   32404                              ( at time 1.6199879E+01 )

 nodal point  x-disp     y-disp      z-disp      x-vel       y-vel       z-vel      x-accl      y-accl      z-accl      x-coor      y-coor      z-coor
    22626 -9.83247E-02 1.02750E+01 4.79314E+00-2.73035E-02 1.28438E+00 1.87686E+00-1.27714E-02-4.02726E-03 1.40168E-01 4.56105E+00-1.79158E+01-4.01886E+01



 n o d a l   p r i n t   o u t   f o r   t i m e  s t e p   32404                              ( at time 1.6199879E+01 )

 nodal point  x-rot      y-rot       z-rot       x-rot vel   y-rot vel   z-rot vel   x-rot acc   y-rot acc   z-rot acc
    22626 -6.47124E-02-5.77434E-04-1.64188E-03-8.41315E-03-2.47540E-04-4.81519E-04-4.60330E-04-2.33063E-04-6.28147E-04



 n o d a l   p r i n t   o u t   f o r   t i m e  s t e p   32604                              ( at time 1.6299869E+01 )

 nodal point  x-disp     y-disp      z-disp      x-vel       y-vel       z-vel      x-accl      y-accl      z-accl      x-coor      y-coor      z-coor
    22626 -1.01194E-01 1.04036E+01 4.98158E+00-2.93965E-02 1.28770E+00 1.89628E+00-2.09321E-02 3.32040E-02 1.94212E-01 4.55818E+00-1.77873E+01-4.00001E+01



 n o d a l   p r i n t   o u t   f o r   t i m e  s t e p   32604                              ( at time 1.6299869E+01 )

 nodal point  x-rot      y-rot       z-rot       x-rot vel   y-rot vel   z-rot vel   x-rot acc   y-rot acc   z-rot acc
    22626 -6.55645E-02-6.01280E-04-1.68817E-03-8.54047E-03-2.49379E-04-4.65152E-04-1.27329E-03-1.84000E-05 1.63685E-04



 n o d a l   p r i n t   o u t   f o r   t i m e  s t e p   32804                              ( at time 1.6399859E+01 )

 nodal point  x-disp     y-disp      z-disp      x-vel       y-vel       z-vel      x-accl      y-accl      z-accl      x-coor      y-coor      z-coor
    22626 -1.04017E-01 1.05321E+01 5.17180E+00-2.75939E-02 1.28489E+00 1.90921E+00 1.80282E-02-2.81305E-02 1.29359E-01 4.55536E+00-1.76587E+01-3.98099E+01



 n o d a l   p r i n t   o u t   f o r   t i m e  s t e p   32804                              ( at time 1.6399859E+01 )

 nodal point  x-rot      y-rot       z-rot       x-rot vel   y-rot vel   z-rot vel   x-rot acc   y-rot acc   z-rot acc
    22626 -6.64241E-02-6.24943E-04-1.73371E-03-8.63676E-03-2.30763E-04-4.57178E-04-9.62954E-04 1.86188E-04 7.97533E-05



 n o d a l   p r i n t   o u t   f o r   t i m e  s t e p   33004                              ( at time 1.6499849E+01 )

 nodal point  x-disp     y-disp      z-disp      x-vel       y-vel       z-vel      x-accl      y-accl      z-accl      x-coor      y-coor      z-coor
    22626 -1.07025E-01 1.06607E+01 5.36339E+00-3.04901E-02 1.28696E+00 1.92126E+00-2.89645E-02 2.07384E-02 1.20509E-01 4.55235E+00-1.75301E+01-3.96183E+01



 n o d a l   p r i n t   o u t   f o r   t i m e  s t e p   33004                              ( at time 1.6499849E+01 )

 nodal point  x-rot      y-rot       z-rot       x-rot vel   y-rot vel   z-rot vel   x-rot acc   y-rot acc   z-rot acc
    22626 -6.72926E-02-6.49233E-04-1.78056E-03-8.78735E-03-2.44609E-04-4.84062E-04-1.50602E-03-1.38472E-04-2.68862E-04
