 LSTC 50th% Full_FE H-III Dummy (Beta Version, February 17, 2019)        
                    ls-dyna smp s R16 R16.0_619_d222963 date 03/18/2025

{BEGIN LEGEND}
 Entity #        Title
        1     Upper_Neck_Force_INJURY                                              
{END LEGEND}



 line#1  section#     time        x-force     y-force     z-force    magnitude
 line#2  resultant  moments       x-moment    y-moment    z-moment   magnitude
 line#3  centroids                x           y           z            area  
           1    0.00000E+00     0.0000E+00  0.0000E+00  0.0000E+00  0.0000E+00
ac ID =   33377                 0.0000E+00  0.0000E+00  0.0000E+00  0.0000E+00
                               -3.7437E-01  1.0501E+01 -4.6940E+01  0.0000E+00

           1    1.00490E-01     1.3554E-04 -4.9882E-03  2.5980E-01  2.5985E-01
ac ID =   33377                 4.2547E-01 -1.2521E+00 -2.7104E-02  1.3227E+00
                               -3.7387E-01  1.0590E+01 -4.6886E+01  2.5147E+03

           1    2.00480E-01    -4.4427E-02  3.6223E-04  4.4146E-01  4.4369E-01
ac ID =   33377                 3.0920E-01 -1.5972E+00  2.1086E-02  1.6270E+00
                               -3.7386E-01  1.0591E+01 -4.6888E+01  2.5147E+03

           1    3.00470E-01     1.4675E-02 -3.0315E-03  2.1786E-01  2.1838E-01
ac ID =   33377                 2.5744E-02 -3.4479E-01  6.4807E-02  3.5177E-01
                               -3.7382E-01  1.0591E+01 -4.6889E+01  2.5147E+03

           1    4.00460E-01     2.7538E-03  1.0344E-02  8.8003E-02  8.8651E-02
ac ID =   33377                -4.9658E-01 -9.4522E-01  3.5397E-03  1.0677E+00
                               -3.7384E-01  1.0592E+01 -4.6890E+01  2.5147E+03

           1    5.00450E-01    -4.0552E-02  4.2902E-03  1.6182E-01  1.6688E-01
ac ID =   33377                -3.9548E-01 -1.5062E+00 -1.0952E-01  1.5611E+00
                               -3.7385E-01  1.0594E+01 -4.6893E+01  2.5147E+03

           1    6.00440E-01    -1.1882E-02  4.0617E-03  3.4457E-01  3.4480E-01
ac ID =   33377                 9.3752E-02 -1.3503E+00 -3.8387E-02  1.3541E+00
                               -3.7385E-01  1.0595E+01 -4.6897E+01  2.5147E+03

           1    7.00430E-01     4.7590E-04 -4.9798E-03  2.9839E-01  2.9843E-01
ac ID =   33377                 1.2703E-01 -5.7546E-01  8.1533E-02  5.9492E-01
                               -3.7389E-01  1.0597E+01 -4.6901E+01  2.5147E+03

           1    8.00420E-01    -3.1112E-02 -6.2027E-05  1.0580E-01  1.1028E-01
ac ID =   33377                 5.2561E-02 -1.1063E+00  4.1863E-02  1.1084E+00
                               -3.7392E-01  1.0599E+01 -4.6905E+01  2.5147E+03

           1    9.00410E-01    -4.0755E-02  1.3525E-03  6.7540E-02  7.8895E-02
ac ID =   33377                 6.7956E-02 -1.1347E+00 -1.8596E-02  1.1368E+00
                               -3.7395E-01  1.0601E+01 -4.6909E+01  2.5147E+03

           1    1.00040E+00     1.1777E-02 -2.5281E-03  2.2743E-01  2.2775E-01
ac ID =   33377                 3.3910E-01 -3.8130E-01 -5.9091E-02  5.1369E-01
                               -3.7393E-01  1.0604E+01 -4.6915E+01  2.5147E+03

           1    1.10039E+00     1.0691E-04  3.9503E-03  2.8252E-01  2.8254E-01
ac ID =   33377                 1.6317E-01 -9.8205E-01 -1.0331E-02  9.9556E-01
                               -3.7388E-01  1.0606E+01 -4.6921E+01  2.5147E+03

           1    1.20038E+00    -3.0583E-02  3.5567E-03  1.3680E-01  1.4022E-01
ac ID =   33377                -2.5093E-01 -1.1577E+00  9.8931E-03  1.1846E+00
                               -3.7381E-01  1.0609E+01 -4.6926E+01  2.5147E+03

           1    1.30037E+00    -1.2112E-02  4.7941E-03  8.7197E-02  8.8164E-02
ac ID =   33377                -3.3224E-01 -9.9815E-01  3.7233E-02  1.0527E+00
                               -3.7372E-01  1.0611E+01 -4.6932E+01  2.5147E+03

           1    1.40036E+00     6.1932E-03  1.3518E-02  1.8621E-01  1.8680E-01
ac ID =   33377                -5.6989E-01 -8.8717E-01  1.1873E-01  1.0611E+00
                               -3.7360E-01  1.0615E+01 -4.6939E+01  2.5147E+03

           1    1.50035E+00    -3.7443E-02  7.2066E-03  3.5196E-01  3.5402E-01
ac ID =   33377                -1.4471E-01 -1.9140E+00  3.4195E-03  1.9195E+00
                               -3.7347E-01  1.0618E+01 -4.6946E+01  2.5147E+03

           1    1.60034E+00    -2.8548E-02 -3.8558E-03  2.4301E-01  2.4471E-01
ac ID =   33377                -1.1690E-01 -1.7201E+00 -8.3698E-02  1.7261E+00
                               -3.7332E-01  1.0621E+01 -4.6954E+01  2.5147E+03

           1    1.70033E+00    -8.6581E-03  3.1900E-03  7.5586E-02  7.6147E-02
ac ID =   33377                -9.0495E-02 -1.0800E+00  1.3441E-01  1.0921E+00
                               -3.7319E-01  1.0625E+01 -4.6961E+01  2.5147E+03

           1    1.80032E+00    -2.7182E-02  3.8692E-03  8.9547E-02  9.3662E-02
ac ID =   33377                -8.2895E-02 -1.5276E+00  1.6853E-01  1.5391E+00
                               -3.7303E-01  1.0628E+01 -4.6969E+01  2.5147E+03

           1    1.90031E+00    -1.0383E-02  4.1475E-03  2.0063E-01  2.0094E-01
ac ID =   33377                 2.1208E-02 -1.0581E+00 -4.4799E-02  1.0593E+00
                               -3.7284E-01  1.0632E+01 -4.6978E+01  2.5147E+03

           1    2.00030E+00    -4.6942E-03 -1.4501E-02  1.6939E-01  1.7007E-01
ac ID =   33377                 2.5841E-01 -6.7632E-01 -2.1962E-01  7.5658E-01
                               -3.7265E-01  1.0636E+01 -4.6987E+01  2.5147E+03

           1    2.10029E+00    -3.0666E-02  1.0028E-02  1.1696E-02  3.4319E-02
ac ID =   33377                -1.9558E-01 -8.4801E-01  6.5579E-02  8.7274E-01
                               -3.7250E-01  1.0640E+01 -4.6995E+01  2.5147E+03

           1    2.20028E+00    -2.9190E-02  2.4070E-02  1.5339E-02  4.0825E-02
ac ID =   33377                -7.3400E-01 -1.0611E+00  2.1127E-01  1.3074E+00
                               -3.7227E-01  1.0644E+01 -4.7005E+01  2.5147E+03

           1    2.30027E+00    -1.7915E-03  5.1195E-03  1.5334E-01  1.5343E-01
ac ID =   33377                -4.1804E-01 -1.0802E+00  6.9235E-02  1.1604E+00
                               -3.7198E-01  1.0648E+01 -4.7015E+01  2.5147E+03

           1    2.40026E+00    -2.6701E-02 -1.8159E-02  1.9228E-01  1.9497E-01
ac ID =   33377                 8.0207E-02 -1.7302E+00  1.5852E-01  1.7393E+00
                               -3.7174E-01  1.0652E+01 -4.7025E+01  2.5147E+03

           1    2.50025E+00    -2.8961E-02 -1.3071E-02  7.1145E-03  3.2561E-02
ac ID =   33377                -8.5825E-02 -1.4287E+00  1.8801E-01  1.4435E+00
                               -3.7168E-01  1.0656E+01 -4.7035E+01  2.5147E+03

           1    2.60024E+00    -7.3900E-03  2.1889E-02 -5.5110E-02  5.9756E-02
ac ID =   33377                -2.5365E-01 -5.7866E-01 -9.9800E-02  6.3965E-01
                               -3.7180E-01  1.0661E+01 -4.7045E+01  2.5147E+03

           1    2.70023E+00    -2.0377E-02 -6.2333E-04  2.3131E-02  3.0833E-02
ac ID =   33377                 7.8692E-02 -5.6706E-01  1.0331E-01  5.8174E-01
                               -3.7178E-01  1.0665E+01 -4.7056E+01  2.5147E+03

           1    2.80022E+00    -2.6911E-02  5.6176E-03  8.5154E-02  8.9481E-02
ac ID =   33377                 2.5160E-01 -8.8165E-01  2.4723E-01  9.4960E-01
                               -3.7165E-01  1.0670E+01 -4.7067E+01  2.5147E+03

           1    2.90021E+00     9.5707E-03 -1.2125E-02  5.7112E-03  1.6469E-02
ac ID =   33377                -4.8783E-02 -7.3392E-02  6.3669E-02  1.0872E-01
                               -3.7148E-01  1.0674E+01 -4.7078E+01  2.5147E+03

           1    3.00020E+00    -8.4860E-03 -1.0712E-03 -8.1468E-02  8.1915E-02
ac ID =   33377                 7.5060E-03 -4.9228E-01 -1.5348E-01  5.1571E-01
                               -3.7143E-01  1.0679E+01 -4.7089E+01  2.5147E+03

           1    3.10019E+00    -2.0863E-02  1.6487E-02  9.9748E-03  2.8401E-02
ac ID =   33377                -6.0652E-01 -1.0520E+00  5.2197E-02  1.2155E+00
                               -3.7138E-01  1.0683E+01 -4.7100E+01  2.5147E+03

           1    3.20018E+00    -7.7614E-03  1.2865E-02  1.0219E-01  1.0329E-01
ac ID =   33377                -3.3678E-01 -1.0810E+00  1.7638E-01  1.1459E+00
                               -3.7133E-01  1.0688E+01 -4.7112E+01  2.5147E+03

           1    3.30017E+00    -3.8770E-03 -1.7942E-02  3.6448E-02  4.0810E-02
ac ID =   33377                 2.6906E-02 -1.0696E+00  1.6680E-01  1.0829E+00
                               -3.7126E-01  1.0692E+01 -4.7123E+01  2.5147E+03

           1    3.40016E+00    -1.0928E-02 -7.0038E-04 -8.4788E-02  8.5492E-02
ac ID =   33377                -1.8805E-02 -4.9395E-01 -8.3059E-02  5.0124E-01
                               -3.7131E-01  1.0697E+01 -4.7135E+01  2.5147E+03

           1    3.50015E+00    -1.5860E-02  2.0921E-02 -1.1288E-01  1.1589E-01
ac ID =   33377                -5.7427E-01 -4.6798E-01 -1.6080E-01  7.5806E-01
                               -3.7131E-01  1.0701E+01 -4.7146E+01  2.5147E+03

           1    3.60014E+00    -2.5942E-03 -1.2443E-02 -2.1929E-02  2.5346E-02
ac ID =   33377                 2.8161E-01  1.2819E-01 -3.4330E-01  4.6216E-01
                               -3.7125E-01  1.0706E+01 -4.7158E+01  2.5147E+03

           1    3.70013E+00    -6.2567E-03 -2.3607E-02 -6.7704E-03  2.5343E-02
ac ID =   33377                 6.4928E-01 -9.5978E-02 -1.5529E-01  6.7446E-01
                               -3.7121E-01  1.0710E+01 -4.7170E+01  2.5147E+03

           1    3.80012E+00    -3.9882E-03  8.4822E-03 -1.0788E-01  1.0828E-01
ac ID =   33377                -1.9332E-01  2.4763E-01  6.2978E-02  3.2041E-01
                               -3.7125E-01  1.0714E+01 -4.7182E+01  2.5147E+03

           1    3.90011E+00     3.1432E-03  2.1248E-02 -1.7685E-01  1.7815E-01
ac ID =   33377                -3.1391E-01  4.8743E-01  5.5024E-02  5.8237E-01
                               -3.7122E-01  1.0717E+01 -4.7193E+01  2.5147E+03

           1    4.00010E+00    -1.0327E-02 -3.7189E-03 -1.2189E-01  1.2238E-01
ac ID =   33377                -2.4767E-01  1.1115E-02 -3.5117E-02  2.5039E-01
                               -3.7111E-01  1.0721E+01 -4.7205E+01  2.5147E+03

           1    4.10009E+00    -3.2123E-03 -1.4631E-02 -6.2737E-02  6.4501E-02
ac ID =   33377                 1.6506E-01 -3.3011E-01 -7.1180E-02  3.7588E-01
                               -3.7104E-01  1.0725E+01 -4.7216E+01  2.5147E+03

           1    4.20008E+00    -1.1407E-02 -1.9534E-03 -1.0675E-01  1.0738E-01
ac ID =   33377                -7.9039E-02 -4.0853E-01  3.7812E-01  5.6224E-01
                               -3.7113E-01  1.0728E+01 -4.7227E+01  2.5147E+03

           1    4.30007E+00     1.1706E-03  1.8168E-02 -2.3036E-01  2.3107E-01
ac ID =   33377                -2.1288E-01  2.7266E-01  9.9706E-02  3.6001E-01
                               -3.7127E-01  1.0732E+01 -4.7238E+01  2.5147E+03

           1    4.40006E+00     1.8028E-03  7.8461E-03 -1.9670E-01  1.9686E-01
ac ID =   33377                -1.0976E-01  4.6476E-01 -4.8434E-02  4.7999E-01
                               -3.7131E-01  1.0735E+01 -4.7249E+01  2.5147E+03

           1    4.50005E+00    -6.6569E-03 -1.4343E-02 -9.4917E-02  9.6225E-02
ac ID =   33377                 4.3536E-01  1.8131E-01 -1.2383E-01  4.8759E-01
                               -3.7126E-01  1.0738E+01 -4.7259E+01  2.5147E+03

           1    4.60004E+00     1.5268E-03 -1.7988E-02 -1.2151E-01  1.2285E-01
ac ID =   33377                 4.3865E-01  2.0992E-01 -2.5368E-01  5.4848E-01
                               -3.7129E-01  1.0741E+01 -4.7270E+01  2.5147E+03

           1    4.70003E+00     6.3341E-03  1.6662E-02 -2.0423E-01  2.0501E-01
ac ID =   33377                -3.7168E-01  1.2157E-01 -5.4119E-03  3.9110E-01
                               -3.7132E-01  1.0743E+01 -4.7280E+01  2.5147E+03

           1    4.80002E+00    -2.9074E-03  1.4953E-02 -2.4320E-01  2.4367E-01
ac ID =   33377                -5.6036E-01  4.0622E-02  1.5957E-01  5.8406E-01
                               -3.7130E-01  1.0745E+01 -4.7289E+01  2.5147E+03

           1    4.90001E+00    -6.0410E-03 -2.6398E-03 -1.6437E-01  1.6450E-01
ac ID =   33377                -2.1515E-01  3.3150E-02  1.2455E-01  2.5080E-01
                               -3.7117E-01  1.0748E+01 -4.7299E+01  2.5147E+03

           1    5.00000E+00    -5.4082E-04 -5.7408E-03 -1.2470E-01  1.2483E-01
ac ID =   33377                -4.0371E-01  9.5759E-02 -3.0388E-02  4.1602E-01
                               -3.7106E-01  1.0750E+01 -4.7309E+01  2.5147E+03

           1    5.10049E+00    -4.2431E-03  3.5468E-03 -1.9911E-01  1.9919E-01
ac ID =   33377                -3.0314E-01 -3.7212E-02 -1.6372E-01  3.4653E-01
                               -3.7103E-01  1.0752E+01 -4.7317E+01  2.5147E+03

           1    5.20048E+00     7.9216E-03  1.8346E-02 -2.5549E-01  2.5627E-01
ac ID =   33377                -4.6726E-01  5.9526E-01 -1.6536E-02  7.5693E-01
                               -3.7096E-01  1.0753E+01 -4.7326E+01  2.5147E+03

           1    5.30047E+00    -4.6157E-04 -7.2060E-03 -2.1006E-01  2.1018E-01
ac ID =   33377                 1.0801E-01  1.3914E-01 -2.3480E-03  1.7616E-01
                               -3.7082E-01  1.0754E+01 -4.7335E+01  2.5147E+03

           1    5.40046E+00     6.1366E-03 -1.5572E-02 -1.5992E-01  1.6079E-01
ac ID =   33377                 5.1084E-01  1.6635E-01 -7.8652E-02  5.4297E-01
                               -3.7067E-01  1.0756E+01 -4.7343E+01  2.5147E+03

           1    5.50045E+00     1.8552E-02  1.2664E-02 -2.3997E-01  2.4102E-01
ac ID =   33377                -4.1675E-01  7.0990E-01 -1.5010E-01  8.3676E-01
                               -3.7055E-01  1.0757E+01 -4.7351E+01  2.5147E+03

           1    5.60044E+00     2.3767E-03  1.3922E-02 -3.2747E-01  3.2777E-01
ac ID =   33377                -3.9002E-01  6.5581E-01 -8.5935E-02  7.6784E-01
                               -3.7038E-01  1.0757E+01 -4.7358E+01  2.5147E+03

           1    5.70043E+00    -3.0287E-04 -3.6269E-03 -3.2410E-01  3.2412E-01
ac ID =   33377                -3.2999E-01  3.6161E-01  2.9937E-02  4.9046E-01
                               -3.7014E-01  1.0758E+01 -4.7365E+01  2.5147E+03

           1    5.80042E+00     2.3330E-02  2.8134E-03 -2.5523E-01  2.5631E-01
ac ID =   33377                -3.6300E-01  6.7190E-01  2.2508E-01  7.9617E-01
                               -3.6993E-01  1.0759E+01 -4.7372E+01  2.5147E+03

           1    5.90041E+00     2.3000E-02  8.6402E-03 -2.5919E-01  2.6035E-01
ac ID =   33377                -5.7049E-01  7.4003E-01  2.5918E-01  9.6967E-01
                               -3.6982E-01  1.0760E+01 -4.7378E+01  2.5147E+03

           1    6.00040E+00     1.2621E-02  4.9486E-03 -3.2583E-01  3.2612E-01
ac ID =   33377                -2.0436E-01  5.8329E-01  2.9126E-01  6.8325E-01
                               -3.6973E-01  1.0761E+01 -4.7384E+01  2.5147E+03

           1    6.10039E+00     3.2150E-02 -4.5183E-03 -3.1986E-01  3.2151E-01
ac ID =   33377                 1.1077E-01  8.0048E-01 -2.0129E-01  8.3280E-01
                               -3.6964E-01  1.0762E+01 -4.7390E+01  2.5147E+03

           1    6.20038E+00     3.9528E-02 -3.8247E-03 -2.7569E-01  2.7853E-01
ac ID =   33377                -1.6460E-01  5.2244E-01 -3.4182E-01  6.4566E-01
                               -3.6958E-01  1.0763E+01 -4.7396E+01  2.5147E+03

           1    6.30037E+00     2.4556E-02 -4.2228E-05 -2.8315E-01  2.8421E-01
ac ID =   33377                 3.7826E-02  3.3046E-01 -2.1285E-01  3.9489E-01
                               -3.6956E-01  1.0765E+01 -4.7401E+01  2.5147E+03

           1    6.40036E+00     3.6651E-02  3.7847E-03 -3.6505E-01  3.6691E-01
ac ID =   33377                -3.7784E-01  6.5387E-01  1.2244E-01  7.6505E-01
                               -3.6949E-01  1.0768E+01 -4.7406E+01  2.5147E+03

           1    6.50035E+00     5.5955E-02  7.3881E-03 -4.2008E-01  4.2386E-01
ac ID =   33377                -5.5638E-01  1.3566E+00  4.3614E-02  1.4669E+00
                               -3.6943E-01  1.0771E+01 -4.7412E+01  2.5147E+03

           1    6.60034E+00     5.8866E-02  4.1008E-03 -3.9546E-01  3.9984E-01
ac ID =   33377                -8.3612E-01  1.4653E+00  1.8901E-01  1.6976E+00
                               -3.6939E-01  1.0775E+01 -4.7417E+01  2.5147E+03

           1    6.70033E+00     5.5534E-02  1.0548E-02 -3.6542E-01  3.6976E-01
ac ID =   33377                -5.1119E-01  1.3645E+00  9.1300E-02  1.4600E+00
                               -3.6944E-01  1.0781E+01 -4.7423E+01  2.5147E+03

           1    6.80032E+00     7.3236E-02  7.4938E-03 -4.0826E-01  4.1484E-01
ac ID =   33377                -6.7312E-01  1.7798E+00  1.0878E-01  1.9059E+00
                               -3.6948E-01  1.0787E+01 -4.7428E+01  2.5147E+03

           1    6.90031E+00     7.1874E-02  2.0817E-02 -4.7492E-01  4.8078E-01
ac ID =   33377                -7.8313E-01  1.7772E+00 -1.8879E-02  1.9422E+00
                               -3.6949E-01  1.0795E+01 -4.7434E+01  2.5147E+03

           1    7.00030E+00     8.9671E-02 -7.1364E-03 -4.7825E-01  4.8664E-01
ac ID =   33377                -3.3077E-01  1.9624E+00 -5.0444E-02  1.9907E+00
                               -3.6944E-01  1.0805E+01 -4.7441E+01  2.5147E+03

           1    7.10029E+00     8.2434E-02 -6.8126E-03 -4.7296E-01  4.8014E-01
ac ID =   33377                 4.0535E-02  1.7215E+00 -2.8634E-02  1.7222E+00
                               -3.6941E-01  1.0816E+01 -4.7448E+01  2.5147E+03

           1    7.20028E+00     9.0208E-02  1.2541E-02 -5.3377E-01  5.4148E-01
ac ID =   33377                -7.4571E-01  2.1590E+00  1.8912E-02  2.2843E+00
                               -3.6944E-01  1.0830E+01 -4.7455E+01  2.5147E+03

           1    7.30027E+00     1.1074E-01  2.2417E-02 -6.2161E-01  6.3180E-01
ac ID =   33377                -7.6262E-01  2.7473E+00 -9.5087E-02  2.8528E+00
                               -3.6943E-01  1.0845E+01 -4.7462E+01  2.5147E+03

           1    7.40026E+00     1.1911E-01 -8.6895E-03 -6.5426E-01  6.6507E-01
ac ID =   33377                -5.0196E-01  3.3298E+00 -2.1441E-01  3.3743E+00
                               -3.6933E-01  1.0862E+01 -4.7471E+01  2.5147E+03

           1    7.50025E+00     1.1509E-01  1.0132E-03 -6.2597E-01  6.3646E-01
ac ID =   33377                -5.7627E-01  3.4805E+00 -1.0502E-01  3.5294E+00
                               -3.6928E-01  1.0882E+01 -4.7480E+01  2.5147E+03

           1    7.60024E+00     1.2735E-01  1.6803E-02 -6.5411E-01  6.6661E-01
ac ID =   33377                -7.9749E-01  3.5855E+00 -8.2522E-03  3.6732E+00
                               -3.6932E-01  1.0904E+01 -4.7490E+01  2.5147E+03

           1    7.70023E+00     1.4068E-01 -1.1221E-03 -7.0101E-01  7.1498E-01
ac ID =   33377                -5.7240E-02  3.7311E+00 -5.8744E-03  3.7315E+00
                               -3.6940E-01  1.0929E+01 -4.7500E+01  2.5147E+03

           1    7.80022E+00     1.2906E-01 -2.0007E-03 -7.3939E-01  7.5057E-01
ac ID =   33377                -2.7710E-01  3.4196E+00 -1.8620E-02  3.4309E+00
                               -3.6944E-01  1.0957E+01 -4.7511E+01  2.5147E+03

           1    7.90021E+00     1.3686E-01  8.0321E-03 -7.4918E-01  7.6162E-01
ac ID =   33377                -2.2159E-01  3.5828E+00 -2.8972E-01  3.6013E+00
                               -3.6958E-01  1.0987E+01 -4.7523E+01  2.5147E+03

           1    8.00020E+00     1.6166E-01 -3.4871E-03 -7.8326E-01  7.9978E-01
ac ID =   33377                 2.4571E-01  4.1812E+00 -3.1018E-02  4.1886E+00
                               -3.6971E-01  1.1020E+01 -4.7537E+01  2.5147E+03

           1    8.10019E+00     1.6364E-01 -9.8615E-04 -8.6437E-01  8.7972E-01
ac ID =   33377                -1.9360E-01  4.5878E+00  1.8296E-01  4.5955E+00
                               -3.6986E-01  1.1056E+01 -4.7551E+01  2.5147E+03

           1    8.20018E+00     1.6868E-01  1.6448E-02 -9.2629E-01  9.4166E-01
ac ID =   33377                -6.6236E-01  5.1266E+00  5.4284E-02  5.1695E+00
                               -3.7007E-01  1.1096E+01 -4.7566E+01  2.5147E+03

           1    8.30017E+00     1.8016E-01  2.4949E-03 -9.5117E-01  9.6808E-01
ac ID =   33377                -5.6543E-01  5.6289E+00  7.0117E-02  5.6577E+00
                               -3.7021E-01  1.1138E+01 -4.7582E+01  2.5147E+03

           1    8.40016E+00     1.8596E-01  5.4992E-04 -9.7960E-01  9.9710E-01
ac ID =   33377                -2.5652E-01  5.6667E+00 -1.7618E-01  5.6752E+00
                               -3.7040E-01  1.1184E+01 -4.7599E+01  2.5147E+03

           1    8.50015E+00     1.8772E-01  8.9728E-03 -1.0506E+00  1.0673E+00
ac ID =   33377                -7.8475E-01  6.2565E+00 -6.5914E-02  6.3059E+00
                               -3.7055E-01  1.1233E+01 -4.7617E+01  2.5147E+03

           1    8.60014E+00     1.8652E-01  2.5067E-03 -1.1233E+00  1.1387E+00
ac ID =   33377                -2.4255E-01  6.0555E+00 -1.9056E-01  6.0634E+00
                               -3.7076E-01  1.1286E+01 -4.7636E+01  2.5147E+03

           1    8.70013E+00     2.0127E-01 -9.0989E-03 -1.1824E+00  1.1994E+00
ac ID =   33377                 7.5824E-03  6.6555E+00 -2.3162E-01  6.6595E+00
                               -3.7090E-01  1.1342E+01 -4.7656E+01  2.5147E+03

           1    8.80012E+00     1.9993E-01  1.0207E-03 -1.2146E+00  1.2309E+00
ac ID =   33377                -2.1841E-01  6.5718E+00 -2.3750E-01  6.5797E+00
                               -3.7104E-01  1.1402E+01 -4.7678E+01  2.5147E+03

           1    8.90011E+00     2.0758E-01  7.3172E-03 -1.2891E+00  1.3057E+00
ac ID =   33377                -2.4985E-01  6.9256E+00 -2.0471E-01  6.9331E+00
                               -3.7123E-01  1.1465E+01 -4.7700E+01  2.5147E+03

           1    9.00010E+00     2.3135E-01 -9.3585E-03 -1.3877E+00  1.4069E+00
ac ID =   33377                 1.3211E-02  7.6039E+00 -9.3022E-04  7.6039E+00
                               -3.7128E-01  1.1531E+01 -4.7723E+01  2.5147E+03

           1    9.10009E+00     2.3249E-01 -1.9881E-04 -1.4374E+00  1.4560E+00
ac ID =   33377                -3.5707E-01  8.1945E+00 -4.8697E-03  8.2023E+00
                               -3.7140E-01  1.1601E+01 -4.7746E+01  2.5147E+03

           1    9.20008E+00     2.2563E-01  1.3548E-02 -1.4779E+00  1.4950E+00
ac ID =   33377                -7.5776E-01  8.0127E+00  1.7450E-01  8.0503E+00
                               -3.7149E-01  1.1675E+01 -4.7771E+01  2.5147E+03

           1    9.30007E+00     2.3921E-01  1.5001E-02 -1.5544E+00  1.5727E+00
ac ID =   33377                -6.4241E-01  8.4586E+00  2.8456E-01  8.4877E+00
                               -3.7152E-01  1.1752E+01 -4.7796E+01  2.5147E+03

           1    9.40006E+00     2.5404E-01  6.1689E-03 -1.6477E+00  1.6671E+00
ac ID =   33377                -4.5717E-01  8.8189E+00 -8.2096E-02  8.8311E+00
                               -3.7148E-01  1.1832E+01 -4.7822E+01  2.5147E+03

           1    9.50005E+00     2.4265E-01  1.0024E-02 -1.7224E+00  1.7394E+00
ac ID =   33377                -6.3785E-01  9.1574E+00 -1.9129E-01  9.1816E+00
                               -3.7143E-01  1.1916E+01 -4.7848E+01  2.5147E+03

           1    9.60004E+00     2.4457E-01  5.8309E-03 -1.7686E+00  1.7854E+00
ac ID =   33377                -2.9851E-01  9.4730E+00  1.3983E-01  9.4787E+00
                               -3.7138E-01  1.2004E+01 -4.7875E+01  2.5147E+03

           1    9.70003E+00     2.7082E-01 -6.3862E-03 -1.8271E+00  1.8471E+00
ac ID =   33377                -3.7671E-02  1.0300E+01  2.3951E-01  1.0303E+01
                               -3.7133E-01  1.2095E+01 -4.7902E+01  2.5147E+03

           1    9.80002E+00     2.7600E-01  1.1266E-02 -1.9265E+00  1.9462E+00
ac ID =   33377                -4.9137E-01  1.0497E+01  5.3593E-02  1.0508E+01
                               -3.7130E-01  1.2189E+01 -4.7929E+01  2.5147E+03

           1    9.90001E+00     2.8091E-01  1.0361E-02 -2.0108E+00  2.0304E+00
ac ID =   33377                -5.2849E-01  1.1190E+01  5.9263E-02  1.1202E+01
                               -3.7117E-01  1.2287E+01 -4.7956E+01  2.5147E+03

           1    1.00005E+01     2.9567E-01 -4.7408E-03 -2.0822E+00  2.1031E+00
ac ID =   33377                -4.4231E-01  1.1992E+01 -6.6159E-02  1.2000E+01
                               -3.7102E-01  1.2389E+01 -4.7984E+01  2.5147E+03

           1    1.01005E+01     3.0293E-01  7.4948E-03 -2.1919E+00  2.2127E+00
ac ID =   33377                -6.8332E-01  1.2693E+01  4.4384E-02  1.2711E+01
                               -3.7097E-01  1.2493E+01 -4.8012E+01  2.5147E+03

           1    1.02005E+01     3.0896E-01  1.4605E-02 -2.2992E+00  2.3199E+00
ac ID =   33377                -1.2614E+00  1.3327E+01  9.0993E-02  1.3387E+01
                               -3.7094E-01  1.2601E+01 -4.8039E+01  2.5147E+03

           1    1.03005E+01     3.1553E-01  5.8483E-03 -2.3983E+00  2.4190E+00
ac ID =   33377                -7.6684E-01  1.3676E+01 -1.2323E-01  1.3698E+01
                               -3.7094E-01  1.2712E+01 -4.8066E+01  2.5147E+03

           1    1.04005E+01     3.3513E-01  4.7396E-03 -2.5026E+00  2.5249E+00
ac ID =   33377                -8.1876E-01  1.4609E+01 -2.4459E-01  1.4634E+01
                               -3.7091E-01  1.2826E+01 -4.8093E+01  2.5147E+03

           1    1.05004E+01     3.3392E-01  8.2433E-03 -2.5651E+00  2.5868E+00
ac ID =   33377                -6.6605E-01  1.4937E+01  4.4524E-02  1.4952E+01
                               -3.7090E-01  1.2943E+01 -4.8120E+01  2.5147E+03

           1    1.06004E+01     3.3581E-01 -1.4080E-03 -2.6369E+00  2.6582E+00
ac ID =   33377                -5.2826E-01  1.5550E+01  2.1179E-01  1.5561E+01
                               -3.7086E-01  1.3063E+01 -4.8146E+01  2.5147E+03

           1    1.07004E+01     3.5559E-01  4.1319E-03 -2.7317E+00  2.7547E+00
ac ID =   33377                -5.8614E-01  1.6233E+01  7.7945E-02  1.6244E+01
                               -3.7087E-01  1.3186E+01 -4.8171E+01  2.5147E+03

           1    1.08004E+01     3.6920E-01  1.0665E-02 -2.8292E+00  2.8532E+00
ac ID =   33377                -9.4367E-01  1.6954E+01 -5.8577E-02  1.6980E+01
                               -3.7090E-01  1.3311E+01 -4.8195E+01  2.5147E+03

           1    1.09004E+01     3.6009E-01  1.5074E-02 -2.8964E+00  2.9187E+00
ac ID =   33377                -1.0146E+00  1.7100E+01 -5.9243E-02  1.7130E+01
                               -3.7091E-01  1.3439E+01 -4.8218E+01  2.5147E+03

           1    1.10004E+01     3.5883E-01 -1.0353E-03 -2.9726E+00  2.9941E+00
ac ID =   33377                -9.2499E-01  1.7603E+01  8.1240E-02  1.7627E+01
                               -3.7087E-01  1.3570E+01 -4.8239E+01  2.5147E+03

           1    1.11004E+01     3.9057E-01  6.1821E-04 -3.0777E+00  3.1024E+00
ac ID =   33377                -9.7107E-01  1.8720E+01 -6.4229E-02  1.8745E+01
                               -3.7096E-01  1.3702E+01 -4.8259E+01  2.5147E+03

           1    1.12004E+01     3.8780E-01  5.3651E-03 -3.1388E+00  3.1627E+00
ac ID =   33377                -1.2023E+00  1.9293E+01 -1.3987E-01  1.9331E+01
                               -3.7109E-01  1.3837E+01 -4.8277E+01  2.5147E+03

           1    1.13004E+01     3.8584E-01  6.2858E-03 -3.1908E+00  3.2140E+00
ac ID =   33377                -8.4654E-01  2.0074E+01 -2.6672E-01  2.0093E+01
                               -3.7128E-01  1.3974E+01 -4.8293E+01  2.5147E+03

           1    1.14004E+01     4.0497E-01 -1.3130E-02 -3.2546E+00  3.2797E+00
ac ID =   33377                -2.2413E-01  2.0617E+01 -1.6710E-01  2.0619E+01
                               -3.7154E-01  1.4112E+01 -4.8307E+01  2.5147E+03

           1    1.15003E+01     4.0685E-01  9.8096E-03 -3.3184E+00  3.3432E+00
ac ID =   33377                -8.5091E-01  2.1326E+01  1.6699E-01  2.1343E+01
                               -3.7189E-01  1.4252E+01 -4.8318E+01  2.5147E+03

           1    1.16003E+01     3.9957E-01  1.7715E-03 -3.3911E+00  3.4146E+00
ac ID =   33377                -5.7771E-01  2.1520E+01  2.2529E-01  2.1529E+01
                               -3.7229E-01  1.4393E+01 -4.8327E+01  2.5147E+03

           1    1.17003E+01     4.1695E-01 -7.2216E-03 -3.4864E+00  3.5113E+00
ac ID =   33377                -7.0280E-01  2.2555E+01 -1.3255E-02  2.2566E+01
                               -3.7272E-01  1.4535E+01 -4.8333E+01  2.5147E+03

           1    1.18003E+01     4.3072E-01  3.8107E-03 -3.5714E+00  3.5973E+00
ac ID =   33377                -1.0466E+00  2.3304E+01 -3.2473E-01  2.3330E+01
                               -3.7324E-01  1.4678E+01 -4.8336E+01  2.5147E+03

           1    1.19003E+01     4.4180E-01  9.8783E-03 -3.6482E+00  3.6749E+00
ac ID =   33377                -1.3374E+00  2.4402E+01 -3.7412E-01  2.4442E+01
                               -3.7382E-01  1.4822E+01 -4.8336E+01  2.5147E+03

           1    1.20003E+01     4.3855E-01 -1.5339E-05 -3.6994E+00  3.7253E+00
ac ID =   33377                -1.0660E+00  2.5225E+01 -1.6074E-01  2.5249E+01
                               -3.7438E-01  1.4967E+01 -4.8332E+01  2.5147E+03

           1    1.21003E+01     4.5811E-01 -4.3275E-03 -3.7981E+00  3.8256E+00
ac ID =   33377                -8.5353E-01  2.6184E+01  2.1893E-01  2.6199E+01
                               -3.7502E-01  1.5112E+01 -4.8325E+01  2.5147E+03

           1    1.22003E+01     4.6871E-01  1.5657E-02 -3.8296E+00  3.8582E+00
ac ID =   33377                -8.4012E-01  2.6879E+01  3.2472E-01  2.6894E+01
                               -3.7572E-01  1.5257E+01 -4.8314E+01  2.5147E+03

           1    1.23003E+01     4.6159E-01  8.0252E-04 -3.8498E+00  3.8774E+00
ac ID =   33377                -7.5108E-01  2.6967E+01  4.4805E-01  2.6981E+01
                               -3.7631E-01  1.5403E+01 -4.8300E+01  2.5147E+03

           1    1.24003E+01     4.8368E-01 -8.4246E-03 -3.9280E+00  3.9576E+00
ac ID =   33377                -1.9296E-01  2.8019E+01 -2.7717E-02  2.8019E+01
                               -3.7698E-01  1.5549E+01 -4.8282E+01  2.5147E+03

           1    1.25002E+01     4.9858E-01  5.7065E-03 -3.9821E+00  4.0132E+00
ac ID =   33377                -6.8939E-01  2.8510E+01  9.5500E-02  2.8518E+01
                               -3.7763E-01  1.5695E+01 -4.8260E+01  2.5147E+03

           1    1.26002E+01     4.8500E-01  3.6390E-03 -4.0097E+00  4.0390E+00
ac ID =   33377                -8.0200E-01  2.9137E+01  1.1991E-01  2.9148E+01
                               -3.7829E-01  1.5841E+01 -4.8234E+01  2.5147E+03

           1    1.27002E+01     4.9299E-01 -1.2013E-02 -4.0328E+00  4.0629E+00
ac ID =   33377                -5.7241E-01  2.9989E+01 -2.6001E-01  2.9996E+01
                               -3.7897E-01  1.5987E+01 -4.8204E+01  2.5147E+03

           1    1.28002E+01     5.2244E-01  7.9839E-03 -4.0709E+00  4.1043E+00
ac ID =   33377                -9.6112E-01  3.1197E+01 -6.1118E-01  3.1217E+01
                               -3.7972E-01  1.6133E+01 -4.8169E+01  2.5147E+03

           1    1.29002E+01     5.1581E-01  9.0700E-03 -4.0700E+00  4.1026E+00
ac ID =   33377                -7.5343E-01  3.1539E+01 -6.9592E-01  3.1555E+01
                               -3.8043E-01  1.6278E+01 -4.8131E+01  2.5147E+03

           1    1.30002E+01     5.1175E-01  1.1427E-04 -4.0940E+00  4.1258E+00
ac ID =   33377                -7.5516E-01  3.2104E+01 -1.6287E-01  3.2114E+01
                               -3.8117E-01  1.6423E+01 -4.8088E+01  2.5147E+03

           1    1.31002E+01     5.1992E-01 -1.2019E-02 -4.1145E+00  4.1473E+00
ac ID =   33377                -1.1717E-01  3.2626E+01 -1.3927E-01  3.2626E+01
                               -3.8198E-01  1.6567E+01 -4.8041E+01  2.5147E+03

           1    1.32002E+01     5.4312E-01 -2.0284E-03 -4.1076E+00  4.1433E+00
ac ID =   33377                -6.6609E-01  3.3237E+01 -3.9846E-01  3.3246E+01
                               -3.8278E-01  1.6711E+01 -4.7989E+01  2.5147E+03

           1    1.33002E+01     5.2911E-01  3.6573E-03 -4.1065E+00  4.1405E+00
ac ID =   33377                -4.1227E-01  3.3630E+01 -3.8552E-01  3.3635E+01
                               -3.8362E-01  1.6854E+01 -4.7933E+01  2.5147E+03

           1    1.34002E+01     5.3575E-01 -1.8328E-02 -4.1322E+00  4.1669E+00
ac ID =   33377                -2.7797E-01  3.4266E+01 -1.2432E-02  3.4268E+01
                               -3.8446E-01  1.6996E+01 -4.7873E+01  2.5147E+03

           1    1.35001E+01     5.5283E-01  5.0034E-03 -4.1436E+00  4.1804E+00
ac ID =   33377                -7.6094E-01  3.5166E+01 -1.2122E-01  3.5175E+01
                               -3.8538E-01  1.7138E+01 -4.7808E+01  2.5147E+03

           1    1.36001E+01     5.4448E-01  1.1236E-02 -4.1022E+00  4.1381E+00
ac ID =   33377                -1.1409E+00  3.5168E+01  9.2658E-02  3.5187E+01
                               -3.8628E-01  1.7279E+01 -4.7739E+01  2.5147E+03

           1    1.37001E+01     5.4166E-01 -1.0870E-02 -4.0843E+00  4.1201E+00
ac ID =   33377                -5.8712E-01  3.5354E+01 -1.3240E-01  3.5359E+01
                               -3.8717E-01  1.7419E+01 -4.7665E+01  2.5147E+03

           1    1.38001E+01     5.4080E-01  8.0148E-03 -4.0681E+00  4.1039E+00
ac ID =   33377                -8.9429E-01  3.5626E+01 -4.1935E-01  3.5640E+01
                               -3.8807E-01  1.7558E+01 -4.7587E+01  2.5147E+03

           1    1.39001E+01     5.3319E-01  1.3096E-02 -4.0477E+00  4.0827E+00
ac ID =   33377                -1.0071E+00  3.5847E+01 -1.4134E-01  3.5861E+01
                               -3.8896E-01  1.7696E+01 -4.7504E+01  2.5147E+03

           1    1.40001E+01     5.2411E-01 -3.4241E-03 -3.9995E+00  4.0337E+00
ac ID =   33377                -6.5536E-01  3.5687E+01  1.0922E-01  3.5693E+01
                               -3.8979E-01  1.7833E+01 -4.7416E+01  2.5147E+03

           1    1.41001E+01     5.5906E-01 -2.4206E-03 -3.9497E+00  3.9891E+00
ac ID =   33377                -8.5091E-01  3.6127E+01 -8.9533E-01  3.6148E+01
                               -3.9058E-01  1.7969E+01 -4.7325E+01  2.5147E+03

           1    1.42001E+01     5.5400E-01  3.1696E-03 -3.9003E+00  3.9395E+00
ac ID =   33377                -6.7079E-01  3.6382E+01 -1.2835E+00  3.6411E+01
                               -3.9135E-01  1.8104E+01 -4.7229E+01  2.5147E+03

           1    1.43001E+01     5.3219E-01 -3.6467E-04 -3.8192E+00  3.8561E+00
ac ID =   33377                -1.0436E+00  3.6022E+01 -3.5745E-01  3.6039E+01
                               -3.9205E-01  1.8238E+01 -4.7128E+01  2.5147E+03

           1    1.44001E+01     5.4141E-01  1.8786E-04 -3.7772E+00  3.8158E+00
ac ID =   33377                -1.1397E+00  3.6395E+01 -1.5538E-01  3.6413E+01
                               -3.9279E-01  1.8371E+01 -4.7024E+01  2.5147E+03

           1    1.45000E+01     5.4764E-01  9.6586E-03 -3.7174E+00  3.7575E+00
ac ID =   33377                -1.1320E+00  3.6121E+01 -4.8442E-01  3.6142E+01
                               -3.9352E-01  1.8503E+01 -4.6915E+01  2.5147E+03

           1    1.46000E+01     5.3510E-01  5.0944E-03 -3.6610E+00  3.6999E+00
ac ID =   33377                -1.4661E+00  3.5942E+01 -5.7557E-01  3.5976E+01
                               -3.9419E-01  1.8634E+01 -4.6802E+01  2.5147E+03

           1    1.47000E+01     5.2445E-01 -2.8079E-03 -3.5863E+00  3.6244E+00
ac ID =   33377                -1.3181E+00  3.5698E+01 -3.0695E-01  3.5723E+01
                               -3.9490E-01  1.8764E+01 -4.6686E+01  2.5147E+03

           1    1.48005E+01     5.3927E-01 -3.5942E-03 -3.5385E+00  3.5794E+00
ac ID =   33377                -1.1444E+00  3.6120E+01 -1.5215E-02  3.6138E+01
                               -3.9564E-01  1.8895E+01 -4.6566E+01  2.5147E+03

           1    1.49005E+01     5.4078E-01  1.2493E-02 -3.4590E+00  3.5010E+00
ac ID =   33377                -1.4243E+00  3.6057E+01  1.8967E-03  3.6085E+01
                               -3.9633E-01  1.9024E+01 -4.6442E+01  2.5147E+03

           1    1.50005E+01     5.2946E-01 -9.2087E-03 -3.3556E+00  3.3972E+00
ac ID =   33377                -1.0052E+00  3.5634E+01 -2.3491E-01  3.5649E+01
                               -3.9704E-01  1.9152E+01 -4.6315E+01  2.5147E+03

           1    1.51005E+01     5.4502E-01  1.1202E-03 -3.3047E+00  3.3494E+00
ac ID =   33377                -1.1261E+00  3.6231E+01 -3.7562E-01  3.6250E+01
                               -3.9777E-01  1.9279E+01 -4.6186E+01  2.5147E+03

           1    1.52005E+01     5.2675E-01  1.6775E-02 -3.1888E+00  3.2320E+00
ac ID =   33377                -1.3028E+00  3.5433E+01 -2.4285E-01  3.5458E+01
                               -3.9856E-01  1.9407E+01 -4.6052E+01  2.5147E+03

           1    1.53005E+01     5.2777E-01  1.1923E-02 -3.1237E+00  3.1680E+00
ac ID =   33377                -1.4878E+00  3.5556E+01  2.1181E-02  3.5587E+01
                               -3.9931E-01  1.9533E+01 -4.5917E+01  2.5147E+03

           1    1.54005E+01     5.1489E-01  3.2561E-03 -3.0532E+00  3.0963E+00
ac ID =   33377                -1.5217E+00  3.5231E+01 -1.7129E-01  3.5264E+01
                               -4.0007E-01  1.9660E+01 -4.5778E+01  2.5147E+03

           1    1.55004E+01     5.0534E-01  9.6662E-03 -2.9606E+00  3.0034E+00
ac ID =   33377                -1.4837E+00  3.4802E+01 -1.6691E-01  3.4834E+01
                               -4.0079E-01  1.9786E+01 -4.5637E+01  2.5147E+03

           1    1.56004E+01     5.1159E-01  1.3502E-02 -2.8541E+00  2.8996E+00
ac ID =   33377                -1.3198E+00  3.4522E+01 -2.2715E-01  3.4548E+01
                               -4.0162E-01  1.9912E+01 -4.5494E+01  2.5147E+03

           1    1.57004E+01     5.1120E-01  1.3656E-02 -2.7276E+00  2.7751E+00
ac ID =   33377                -1.5778E+00  3.4364E+01 -6.8036E-01  3.4407E+01
                               -4.0237E-01  2.0037E+01 -4.5348E+01  2.5147E+03

           1    1.58004E+01     5.3836E-01  4.7272E-03 -2.6821E+00  2.7356E+00
ac ID =   33377                -1.4813E+00  3.4499E+01 -1.0861E+00  3.4548E+01
                               -4.0320E-01  2.0163E+01 -4.5201E+01  2.5147E+03

           1    1.59004E+01     4.2299E-01  3.2793E-03 -2.4638E+00  2.4999E+00
ac ID =   33377                -1.0441E+00  3.2339E+01 -1.0113E+00  3.2372E+01
                               -4.0402E-01  2.0289E+01 -4.5052E+01  2.5147E+03

           1    1.60004E+01     5.0956E-01 -2.0968E-03 -2.3629E+00  2.4173E+00
ac ID =   33377                -1.1965E+00  3.2732E+01 -5.0738E-01  3.2758E+01
                               -4.0480E-01  2.0414E+01 -4.4901E+01  2.5147E+03

           1    1.61004E+01     4.8794E-01  8.2527E-03 -2.3211E+00  2.3719E+00
ac ID =   33377                -1.1916E+00  3.2160E+01 -3.7147E-01  3.2185E+01
                               -4.0581E-01  2.0540E+01 -4.4748E+01  2.5147E+03

           1    1.62004E+01     4.1466E-01  1.6526E-02 -2.1618E+00  2.2013E+00
ac ID =   33377                -2.1436E+00  2.9935E+01 -6.4607E-01  3.0018E+01
                               -4.0673E-01  2.0665E+01 -4.4594E+01  2.5147E+03

           1    1.63004E+01     4.3995E-01 -2.8775E-04 -2.1029E+00  2.1484E+00
ac ID =   33377                -1.6517E+00  3.0756E+01 -7.0615E-01  3.0808E+01
                               -4.0765E-01  2.0790E+01 -4.4439E+01  2.5147E+03

           1    1.64004E+01     4.2121E-01  5.1573E-03 -1.9614E+00  2.0062E+00
ac ID =   33377                -1.2967E+00  2.9797E+01 -9.5332E-02  2.9825E+01
                               -4.0868E-01  2.0915E+01 -4.4282E+01  2.5147E+03

           1    1.65003E+01     4.1318E-01  1.2213E-02 -1.8758E+00  1.9208E+00
ac ID =   33377                -1.8327E+00  2.9026E+01  4.3875E-01  2.9087E+01
                               -4.0973E-01  2.1040E+01 -4.4124E+01  2.5147E+03

