 LSTC 50th% Full_FE H-III Dummy (Beta Version, February 17, 2019)        
                    ls-dyna smp s R16 R16.0_619_d222963 date 03/18/2025

{BEGIN LEGEND}
 Entity #        Title
    22626                                                                                     
{END LEGEND}




 n o d a l   p r i n t   o u t   f o r   t i m e  s t e p       1                              ( at time 0.0000000E+00 )

 nodal point  x-disp     y-disp      z-disp      x-vel       y-vel       z-vel      x-accl      y-accl      z-accl      x-coor      y-coor      z-coor
    22626  0.00000E+00 0.00000E+00 0.00000E+00 0.00000E+00 0.00000E+00-3.12000E+00 0.00000E+00 0.00000E+00 0.00000E+00 4.79642E+01-2.20298E+01 7.33850E+00



 n o d a l   p r i n t   o u t   f o r   t i m e  s t e p       1                              ( at time 0.0000000E+00 )

 nodal point  x-rot      y-rot       z-rot       x-rot vel   y-rot vel   z-rot vel   x-rot acc   y-rot acc   z-rot acc
    22626  0.00000E+00 0.00000E+00 0.00000E+00 0.00000E+00 0.00000E+00 0.00000E+00 0.00000E+00 0.00000E+00 0.00000E+00



 n o d a l   p r i n t   o u t   f o r   t i m e  s t e p     201                              ( at time 9.9989993E-02 )

 nodal point  x-disp     y-disp      z-disp      x-vel       y-vel       z-vel      x-accl      y-accl      z-accl      x-coor      y-coor      z-coor
    22626  8.34124E-07-4.04497E-06-3.12016E-01 4.76609E-05-4.96481E-04-3.12074E+00 4.76657E-04-4.96531E-03-7.42748E-03 4.79642E+01-2.20298E+01 7.02648E+00



 n o d a l   p r i n t   o u t   f o r   t i m e  s t e p     201                              ( at time 9.9989993E-02 )

 nodal point  x-rot      y-rot       z-rot       x-rot vel   y-rot vel   z-rot vel   x-rot acc   y-rot acc   z-rot acc
    22626  9.61115E-09 3.04018E-08 5.26979E-08 1.30705E-06 2.72201E-06 5.21199E-06 1.30718E-05 2.72228E-05 5.21251E-05



 n o d a l   p r i n t   o u t   f o r   t i m e  s t e p     401                              ( at time 1.9997999E-01 )

 nodal point  x-disp     y-disp      z-disp      x-vel       y-vel       z-vel      x-accl      y-accl      z-accl      x-coor      y-coor      z-coor
    22626 -5.12825E-05-5.21566E-04-6.23853E-01-1.09635E-03-1.11145E-02-3.11558E+00-1.14413E-02-1.06191E-01 5.16276E-02 4.79641E+01-2.20303E+01 6.71465E+00



 n o d a l   p r i n t   o u t   f o r   t i m e  s t e p     401                              ( at time 1.9997999E-01 )

 nodal point  x-rot      y-rot       z-rot       x-rot vel   y-rot vel   z-rot vel   x-rot acc   y-rot acc   z-rot acc
    22626  4.60087E-07 1.33009E-06 2.50246E-06 2.63157E-06 1.90620E-05 3.49533E-05 1.32466E-05 1.63416E-04 2.97443E-04



 n o d a l   p r i n t   o u t   f o r   t i m e  s t e p     601                              ( at time 2.9996998E-01 )

 nodal point  x-disp     y-disp      z-disp      x-vel       y-vel       z-vel      x-accl      y-accl      z-accl      x-coor      y-coor      z-coor
    22626 -2.45772E-05-1.97632E-03-9.35238E-01 1.66120E-03-1.60489E-02-3.11415E+00 2.75783E-02-4.93484E-02 1.43519E-02 4.79642E+01-2.20318E+01 6.40326E+00



 n o d a l   p r i n t   o u t   f o r   t i m e  s t e p     601                              ( at time 2.9996998E-01 )

 nodal point  x-rot      y-rot       z-rot       x-rot vel   y-rot vel   z-rot vel   x-rot acc   y-rot acc   z-rot acc
    22626  6.75156E-07 2.41131E-06 4.82699E-06 8.23397E-06 5.32901E-06 1.47046E-05 5.60295E-05-1.37343E-04-2.02507E-04



 n o d a l   p r i n t   o u t   f o r   t i m e  s t e p     801                              ( at time 3.9995997E-01 )

 nodal point  x-disp     y-disp      z-disp      x-vel       y-vel       z-vel      x-accl      y-accl      z-accl      x-coor      y-coor      z-coor
    22626  5.94681E-05-3.57405E-03-1.24663E+00 1.93921E-04-1.73908E-02-3.11353E+00-1.46742E-02-1.34206E-02 6.13035E-03 4.79642E+01-2.20334E+01 6.09187E+00



 n o d a l   p r i n t   o u t   f o r   t i m e  s t e p     801                              ( at time 3.9995997E-01 )

 nodal point  x-rot      y-rot       z-rot       x-rot vel   y-rot vel   z-rot vel   x-rot acc   y-rot acc   z-rot acc
    22626  1.58228E-06 3.68045E-06 6.68041E-06 6.27778E-06 2.43539E-05 3.83337E-05-1.95638E-05 1.90268E-04 2.36315E-04



 n o d a l   p r i n t   o u t   f o r   t i m e  s t e p    1001                              ( at time 4.9994997E-01 )

 nodal point  x-disp     y-disp      z-disp      x-vel       y-vel       z-vel      x-accl      y-accl      z-accl      x-coor      y-coor      z-coor
    22626  7.27618E-05-5.63142E-03-1.55782E+00 8.92986E-04-2.38451E-02-3.11086E+00 6.99136E-03-6.45497E-02 2.67747E-02 4.79643E+01-2.20354E+01 5.78068E+00



 n o d a l   p r i n t   o u t   f o r   t i m e  s t e p    1001                              ( at time 4.9994997E-01 )

 nodal point  x-rot      y-rot       z-rot       x-rot vel   y-rot vel   z-rot vel   x-rot acc   y-rot acc   z-rot acc
    22626  1.49386E-06 6.64872E-06 1.18375E-05-4.83858E-06 4.37717E-05 7.20501E-05-1.11175E-04 1.94198E-04 3.37198E-04



 n o d a l   p r i n t   o u t   f o r   t i m e  s t e p    1201                              ( at time 5.9993996E-01 )

 nodal point  x-disp     y-disp      z-disp      x-vel       y-vel       z-vel      x-accl      y-accl      z-accl      x-coor      y-coor      z-coor
    22626  5.29662E-05-8.13741E-03-1.86888E+00-5.63622E-04-2.61256E-02-3.11084E+00-1.45675E-02-2.28069E-02 1.90754E-04 4.79642E+01-2.20379E+01 5.46962E+00



 n o d a l   p r i n t   o u t   f o r   t i m e  s t e p    1201                              ( at time 5.9993996E-01 )

 nodal point  x-rot      y-rot       z-rot       x-rot vel   y-rot vel   z-rot vel   x-rot acc   y-rot acc   z-rot acc
    22626  1.26514E-06 9.87493E-06 1.77376E-05-2.16121E-06 2.63629E-05 5.29407E-05 2.67764E-05-1.74105E-04-1.91114E-04



 n o d a l   p r i n t   o u t   f o r   t i m e  s t e p    1401                              ( at time 6.9992995E-01 )

 nodal point  x-disp     y-disp      z-disp      x-vel       y-vel       z-vel      x-accl      y-accl      z-accl      x-coor      y-coor      z-coor
    22626  1.96935E-05-1.10206E-02-2.17976E+00 7.17463E-04-3.22402E-02-3.10770E+00 1.28121E-02-6.11527E-02 3.13743E-02 4.79642E+01-2.20408E+01 5.15874E+00



 n o d a l   p r i n t   o u t   f o r   t i m e  s t e p    1401                              ( at time 6.9992995E-01 )

 nodal point  x-rot      y-rot       z-rot       x-rot vel   y-rot vel   z-rot vel   x-rot acc   y-rot acc   z-rot acc
    22626  1.10250E-06 1.30694E-05 2.27041E-05-2.39308E-06 3.79379E-05 5.94838E-05-2.31899E-06 1.15762E-04 6.54378E-05



 n o d a l   p r i n t   o u t   f o r   t i m e  s t e p    1601                              ( at time 7.9991994E-01 )

 nodal point  x-disp     y-disp      z-disp      x-vel       y-vel       z-vel      x-accl      y-accl      z-accl      x-coor      y-coor      z-coor
    22626  1.33080E-04-1.45709E-02-2.49038E+00 1.37186E-03-3.68181E-02-3.10600E+00 6.54464E-03-4.57831E-02 1.69890E-02 4.79643E+01-2.20444E+01 4.84812E+00



 n o d a l   p r i n t   o u t   f o r   t i m e  s t e p    1601                              ( at time 7.9991994E-01 )

 nodal point  x-rot      y-rot       z-rot       x-rot vel   y-rot vel   z-rot vel   x-rot acc   y-rot acc   z-rot acc
    22626  1.00734E-06 1.72061E-05 2.96654E-05 2.99278E-06 4.88268E-05 7.64129E-05 5.38640E-05 1.08900E-04 1.69308E-04



 n o d a l   p r i n t   o u t   f o r   t i m e  s t e p    1801                              ( at time 8.9990994E-01 )

 nodal point  x-disp     y-disp      z-disp      x-vel       y-vel       z-vel      x-accl      y-accl      z-accl      x-coor      y-coor      z-coor
    22626  2.07442E-04-1.82140E-02-2.80104E+00-5.10473E-04-3.64278E-02-3.10742E+00-1.88252E-02 3.90327E-03-1.41563E-02 4.79644E+01-2.20480E+01 4.53746E+00



 n o d a l   p r i n t   o u t   f o r   t i m e  s t e p    1801                              ( at time 8.9990994E-01 )

 nodal point  x-rot      y-rot       z-rot       x-rot vel   y-rot vel   z-rot vel   x-rot acc   y-rot acc   z-rot acc
    22626  1.02500E-06 2.13199E-05 3.66565E-05-1.93538E-06 3.78802E-05 6.82155E-05-4.92865E-05-1.09477E-04-8.19827E-05



 n o d a l   p r i n t   o u t   f o r   t i m e  s t e p    2001                              ( at time 9.9989993E-01 )

 nodal point  x-disp     y-disp      z-disp      x-vel       y-vel       z-vel      x-accl      y-accl      z-accl      x-coor      y-coor      z-coor
    22626  1.09779E-04-2.19276E-02-3.11175E+00-8.13831E-04-3.84026E-02-3.10755E+00-3.03389E-03-1.97498E-02-1.36628E-03 4.79643E+01-2.20517E+01 4.22675E+00



 n o d a l   p r i n t   o u t   f o r   t i m e  s t e p    2001                              ( at time 9.9989993E-01 )

 nodal point  x-rot      y-rot       z-rot       x-rot vel   y-rot vel   z-rot vel   x-rot acc   y-rot acc   z-rot acc
    22626  8.56782E-07 2.55322E-05 4.38483E-05-9.27282E-07 4.62683E-05 8.59967E-05 1.00820E-05 8.38894E-05 1.77830E-04



 n o d a l   p r i n t   o u t   f o r   t i m e  s t e p    2201                              ( at time 1.0998899E+00 )

 nodal point  x-disp     y-disp      z-disp      x-vel       y-vel       z-vel      x-accl      y-accl      z-accl      x-coor      y-coor      z-coor
    22626  9.19406E-05-2.58760E-02-3.42246E+00-2.14736E-04-4.02570E-02-3.10712E+00 5.99155E-03-1.85461E-02 4.33489E-03 4.79643E+01-2.20557E+01 3.91605E+00



 n o d a l   p r i n t   o u t   f o r   t i m e  s t e p    2201                              ( at time 1.0998899E+00 )

 nodal point  x-rot      y-rot       z-rot       x-rot vel   y-rot vel   z-rot vel   x-rot acc   y-rot acc   z-rot acc
    22626  9.33187E-07 3.03120E-05 5.24803E-05 5.35395E-06 4.65234E-05 7.51665E-05 6.28186E-05 2.55081E-06-1.08313E-04



 n o d a l   p r i n t   o u t   f o r   t i m e  s t e p    2401                              ( at time 1.1998799E+00 )

 nodal point  x-disp     y-disp      z-disp      x-vel       y-vel       z-vel      x-accl      y-accl      z-accl      x-coor      y-coor      z-coor
    22626  1.34303E-04-2.98900E-02-3.73320E+00 7.31065E-04-3.98023E-02-3.10850E+00 9.45896E-03 4.54713E-03-1.37820E-02 4.79643E+01-2.20597E+01 3.60531E+00



 n o d a l   p r i n t   o u t   f o r   t i m e  s t e p    2401                              ( at time 1.1998799E+00 )

 nodal point  x-rot      y-rot       z-rot       x-rot vel   y-rot vel   z-rot vel   x-rot acc   y-rot acc   z-rot acc
    22626  1.33609E-06 3.44647E-05 5.93269E-05 5.03580E-06 3.98470E-05 6.55327E-05-3.18177E-06-6.67699E-05-9.63471E-05



 n o d a l   p r i n t   o u t   f o r   t i m e  s t e p    2601                              ( at time 1.2998699E+00 )

 nodal point  x-disp     y-disp      z-disp      x-vel       y-vel       z-vel      x-accl      y-accl      z-accl      x-coor      y-coor      z-coor
    22626  1.46198E-04-3.37303E-02-4.04413E+00-4.21636E-04-3.65935E-02-3.11133E+00-1.15282E-02 3.20919E-02-2.82936E-02 4.79643E+01-2.20635E+01 3.29437E+00



 n o d a l   p r i n t   o u t   f o r   t i m e  s t e p    2601                              ( at time 1.2998699E+00 )

 nodal point  x-rot      y-rot       z-rot       x-rot vel   y-rot vel   z-rot vel   x-rot acc   y-rot acc   z-rot acc
    22626  1.63942E-06 3.85434E-05 6.61330E-05-2.48890E-06 4.54646E-05 7.99921E-05-7.52546E-05 5.61810E-05 1.44608E-04



 n o d a l   p r i n t   o u t   f o r   t i m e  s t e p    2801                              ( at time 1.3998599E+00 )

 nodal point  x-disp     y-disp      z-disp      x-vel       y-vel       z-vel      x-accl      y-accl      z-accl      x-coor      y-coor      z-coor
    22626  3.22560E-05-3.71240E-02-4.35543E+00-1.30780E-03-3.14350E-02-3.11511E+00-8.86253E-03 5.15898E-02-3.78122E-02 4.79642E+01-2.20669E+01 2.98307E+00



 n o d a l   p r i n t   o u t   f o r   t i m e  s t e p    2801                              ( at time 1.3998599E+00 )

 nodal point  x-rot      y-rot       z-rot       x-rot vel   y-rot vel   z-rot vel   x-rot acc   y-rot acc   z-rot acc
    22626  1.20436E-06 4.29488E-05 7.39899E-05-4.57695E-06 4.45409E-05 7.34662E-05-2.08826E-05-9.23746E-06-6.52657E-05



 n o d a l   p r i n t   o u t   f o r   t i m e  s t e p    3001                              ( at time 1.4998499E+00 )

 nodal point  x-disp     y-disp      z-disp      x-vel       y-vel       z-vel      x-accl      y-accl      z-accl      x-coor      y-coor      z-coor
    22626 -7.75764E-05-4.01686E-02-4.66702E+00-4.96422E-04-2.97699E-02-3.11713E+00 8.11459E-03 1.66531E-02-2.02366E-02 4.79641E+01-2.20700E+01 2.67148E+00



 n o d a l   p r i n t   o u t   f o r   t i m e  s t e p    3001                              ( at time 1.4998499E+00 )

 nodal point  x-rot      y-rot       z-rot       x-rot vel   y-rot vel   z-rot vel   x-rot acc   y-rot acc   z-rot acc
    22626  8.27288E-07 4.68517E-05 8.05189E-05-1.63826E-06 3.18343E-05 5.69217E-05 2.93898E-05-1.27078E-04-1.65462E-04



 n o d a l   p r i n t   o u t   f o r   t i m e  s t e p    3201                              ( at time 1.5998399E+00 )

 nodal point  x-disp     y-disp      z-disp      x-vel       y-vel       z-vel      x-accl      y-accl      z-accl      x-coor      y-coor      z-coor
    22626 -1.24309E-04-4.30592E-02-4.97879E+00-6.95113E-04-2.75117E-02-3.11940E+00-1.98711E-03 2.25837E-02-2.26878E-02 4.79641E+01-2.20728E+01 2.35971E+00



 n o d a l   p r i n t   o u t   f o r   t i m e  s t e p    3201                              ( at time 1.5998399E+00 )

 nodal point  x-rot      y-rot       z-rot       x-rot vel   y-rot vel   z-rot vel   x-rot acc   y-rot acc   z-rot acc
    22626  5.15763E-07 4.99113E-05 8.53947E-05-1.52558E-06 3.26752E-05 4.80390E-05 1.12695E-06 8.40941E-06-8.88354E-05



 n o d a l   p r i n t   o u t   f o r   t i m e  s t e p    3401                              ( at time 1.6998299E+00 )

 nodal point  x-disp     y-disp      z-disp      x-vel       y-vel       z-vel      x-accl      y-accl      z-accl      x-coor      y-coor      z-coor
    22626 -2.11008E-04-4.55736E-02-5.29089E+00-1.13292E-03-2.24374E-02-3.12325E+00-4.37854E-03 5.07487E-02-3.85347E-02 4.79640E+01-2.20754E+01 2.04762E+00



 n o d a l   p r i n t   o u t   f o r   t i m e  s t e p    3401                              ( at time 1.6998299E+00 )

 nodal point  x-rot      y-rot       z-rot       x-rot vel   y-rot vel   z-rot vel   x-rot acc   y-rot acc   z-rot acc
    22626  3.01234E-07 5.29932E-05 9.04284E-05-3.79369E-06 2.97965E-05 4.76116E-05-2.26834E-05-2.87898E-05-4.27447E-06



 n o d a l   p r i n t   o u t   f o r   t i m e  s t e p    3601                              ( at time 1.7998199E+00 )

 nodal point  x-disp     y-disp      z-disp      x-vel       y-vel       z-vel      x-accl      y-accl      z-accl      x-coor      y-coor      z-coor
    22626 -3.12725E-04-4.75643E-02-5.60339E+00-1.32880E-03-1.77161E-02-3.12732E+00-1.95897E-03 4.72172E-02-4.06497E-02 4.79639E+01-2.20774E+01 1.73511E+00



 n o d a l   p r i n t   o u t   f o r   t i m e  s t e p    3601                              ( at time 1.7998199E+00 )

 nodal point  x-rot      y-rot       z-rot       x-rot vel   y-rot vel   z-rot vel   x-rot acc   y-rot acc   z-rot acc
    22626  1.56035E-07 5.57811E-05 9.51851E-05-4.01542E-07 2.14936E-05 4.21642E-05 3.39249E-05-8.30372E-05-5.44796E-05



 n o d a l   p r i n t   o u t   f o r   t i m e  s t e p    3801                              ( at time 1.8998099E+00 )

 nodal point  x-disp     y-disp      z-disp      x-vel       y-vel       z-vel      x-accl      y-accl      z-accl      x-coor      y-coor      z-coor
    22626 -5.00261E-04-4.92022E-02-5.91621E+00-2.16237E-03-1.51669E-02-3.12982E+00-8.33655E-03 2.54951E-02-2.50221E-02 4.79637E+01-2.20790E+01 1.42229E+00



 n o d a l   p r i n t   o u t   f o r   t i m e  s t e p    3801                              ( at time 1.8998099E+00 )

 nodal point  x-rot      y-rot       z-rot       x-rot vel   y-rot vel   z-rot vel   x-rot acc   y-rot acc   z-rot acc
    22626 -8.90320E-08 5.76796E-05 9.86012E-05 1.60499E-06 1.55601E-05 2.75096E-05 2.00674E-05-5.93413E-05-1.46560E-04



 n o d a l   p r i n t   o u t   f o r   t i m e  s t e p    4001                              ( at time 1.9997999E+00 )

 nodal point  x-disp     y-disp      z-disp      x-vel       y-vel       z-vel      x-accl      y-accl      z-accl      x-coor      y-coor      z-coor
    22626 -6.73802E-04-5.05925E-02-6.22929E+00-1.65364E-03-1.28124E-02-3.13210E+00 5.08781E-03 2.35468E-02-2.28523E-02 4.79635E+01-2.20804E+01 1.10921E+00



 n o d a l   p r i n t   o u t   f o r   t i m e  s t e p    4001                              ( at time 1.9997999E+00 )

 nodal point  x-rot      y-rot       z-rot       x-rot vel   y-rot vel   z-rot vel   x-rot acc   y-rot acc   z-rot acc
    22626  1.15945E-07 5.90151E-05 1.00910E-04 3.40975E-06 1.31585E-05 1.99635E-05 1.80494E-05-2.40179E-05-7.54690E-05



 n o d a l   p r i n t   o u t   f o r   t i m e  s t e p    4201                              ( at time 2.0997899E+00 )

 nodal point  x-disp     y-disp      z-disp      x-vel       y-vel       z-vel      x-accl      y-accl      z-accl      x-coor      y-coor      z-coor
    22626 -8.43116E-04-5.16835E-02-6.54262E+00-1.85713E-03-9.15406E-03-3.13518E+00-2.03508E-03 3.65873E-02-3.07495E-02 4.79633E+01-2.20815E+01 7.95877E-01



 n o d a l   p r i n t   o u t   f o r   t i m e  s t e p    4201                              ( at time 2.0997899E+00 )

 nodal point  x-rot      y-rot       z-rot       x-rot vel   y-rot vel   z-rot vel   x-rot acc   y-rot acc   z-rot acc
    22626  4.00532E-07 5.96591E-05 1.02000E-04-1.33566E-06 3.38800E-06 1.67300E-06-4.74589E-05-9.77151E-05-1.82923E-04



 n o d a l   p r i n t   o u t   f o r   t i m e  s t e p    4401                              ( at time 2.1997798E+00 )

 nodal point  x-disp     y-disp      z-disp      x-vel       y-vel       z-vel      x-accl      y-accl      z-accl      x-coor      y-coor      z-coor
    22626 -1.08535E-03-5.23703E-02-6.85629E+00-2.77025E-03-4.41608E-03-3.13894E+00-9.13216E-03 4.73846E-02-3.76644E-02 4.79631E+01-2.20822E+01 4.82212E-01



 n o d a l   p r i n t   o u t   f o r   t i m e  s t e p    4401                              ( at time 2.1997798E+00 )

 nodal point  x-rot      y-rot       z-rot       x-rot vel   y-rot vel   z-rot vel   x-rot acc   y-rot acc   z-rot acc
    22626  2.21323E-07 5.96502E-05 1.01931E-04-1.26068E-06-2.12307E-06-3.04788E-06 7.49894E-07-5.51162E-05-4.72135E-05



 n o d a l   p r i n t   o u t   f o r   t i m e  s t e p    4601                              ( at time 2.2997698E+00 )

 nodal point  x-disp     y-disp      z-disp      x-vel       y-vel       z-vel      x-accl      y-accl      z-accl      x-coor      y-coor      z-coor
    22626 -1.39431E-03-5.25654E-02-7.17034E+00-3.52335E-03-8.61163E-05-3.14228E+00-7.53172E-03 4.33039E-02-3.33557E-02 4.79628E+01-2.20824E+01 1.68163E-01



 n o d a l   p r i n t   o u t   f o r   t i m e  s t e p    4601                              ( at time 2.2997698E+00 )

 nodal point  x-rot      y-rot       z-rot       x-rot vel   y-rot vel   z-rot vel   x-rot acc   y-rot acc   z-rot acc
    22626 -1.69125E-07 5.93369E-05 1.01556E-04-4.57299E-06-9.91746E-06-1.31778E-05-3.31264E-05-7.79516E-05-1.01309E-04



 n o d a l   p r i n t   o u t   f o r   t i m e  s t e p    4801                              ( at time 2.3997598E+00 )

 nodal point  x-disp     y-disp      z-disp      x-vel       y-vel       z-vel      x-accl      y-accl      z-accl      x-coor      y-coor      z-coor
    22626 -1.76324E-03-5.24783E-02-7.48464E+00-3.61149E-03 1.86514E-03-3.14440E+00-8.81507E-04 1.95145E-02-2.11809E-02 4.79624E+01-2.20823E+01-1.46135E-01



 n o d a l   p r i n t   o u t   f o r   t i m e  s t e p    4801                              ( at time 2.3997598E+00 )

 nodal point  x-rot      y-rot       z-rot       x-rot vel   y-rot vel   z-rot vel   x-rot acc   y-rot acc   z-rot acc
    22626 -7.17020E-07 5.80721E-05 9.90703E-05-6.05755E-06-1.62624E-05-3.38169E-05-1.48470E-05-6.34561E-05-2.06412E-04



 n o d a l   p r i n t   o u t   f o r   t i m e  s t e p    5001                              ( at time 2.4997498E+00 )

 nodal point  x-disp     y-disp      z-disp      x-vel       y-vel       z-vel      x-accl      y-accl      z-accl      x-coor      y-coor      z-coor
    22626 -2.15647E-03-5.21711E-02-7.79916E+00-4.24595E-03 4.96221E-03-3.14711E+00-6.34520E-03 3.09738E-02-2.71109E-02 4.79620E+01-2.20820E+01-4.60661E-01



 n o d a l   p r i n t   o u t   f o r   t i m e  s t e p    5001                              ( at time 2.4997498E+00 )

 nodal point  x-rot      y-rot       z-rot       x-rot vel   y-rot vel   z-rot vel   x-rot acc   y-rot acc   z-rot acc
    22626 -1.16643E-06 5.58398E-05 9.51052E-05-4.04519E-06-2.63767E-05-4.86854E-05 2.01256E-05-1.01152E-04-1.48699E-04



 n o d a l   p r i n t   o u t   f o r   t i m e  s t e p    5201                              ( at time 2.5997398E+00 )

 nodal point  x-disp     y-disp      z-disp      x-vel       y-vel       z-vel      x-accl      y-accl      z-accl      x-coor      y-coor      z-coor
    22626 -2.63094E-03-5.14565E-02-8.11403E+00-5.25946E-03 9.27267E-03-3.15070E+00-1.01361E-02 4.31090E-02-3.58832E-02 4.79615E+01-2.20812E+01-7.75526E-01



 n o d a l   p r i n t   o u t   f o r   t i m e  s t e p    5201                              ( at time 2.5997398E+00 )

 nodal point  x-rot      y-rot       z-rot       x-rot vel   y-rot vel   z-rot vel   x-rot acc   y-rot acc   z-rot acc
    22626 -1.53748E-06 5.27331E-05 8.96622E-05-4.77014E-06-3.58801E-05-6.22991E-05-7.25026E-06-9.50441E-05-1.36151E-04



 n o d a l   p r i n t   o u t   f o r   t i m e  s t e p    5401                              ( at time 2.6997298E+00 )

 nodal point  x-disp     y-disp      z-disp      x-vel       y-vel       z-vel      x-accl      y-accl      z-accl      x-coor      y-coor      z-coor
    22626 -3.20099E-03-5.03219E-02-8.42924E+00-6.42046E-03 1.29753E-02-3.15421E+00-1.16112E-02 3.70298E-02-3.51297E-02 4.79610E+01-2.20801E+01-1.09074E+00



 n o d a l   p r i n t   o u t   f o r   t i m e  s t e p    5401                              ( at time 2.6997298E+00 )

 nodal point  x-rot      y-rot       z-rot       x-rot vel   y-rot vel   z-rot vel   x-rot acc   y-rot acc   z-rot acc
    22626 -1.83831E-06 4.89835E-05 8.31565E-05-2.01089E-06-4.12412E-05-6.66954E-05 2.75952E-05-5.36165E-05-4.39676E-05



 n o d a l   p r i n t   o u t   f o r   t i m e  s t e p    5601                              ( at time 2.7997198E+00 )

 nodal point  x-disp     y-disp      z-disp      x-vel       y-vel       z-vel      x-accl      y-accl      z-accl      x-coor      y-coor      z-coor
    22626 -3.91479E-03-4.88975E-02-8.74475E+00-7.67685E-03 1.51594E-02-3.15635E+00-1.25651E-02 2.18436E-02-2.14551E-02 4.79603E+01-2.20787E+01-1.40625E+00



 n o d a l   p r i n t   o u t   f o r   t i m e  s t e p    5601                              ( at time 2.7997198E+00 )

 nodal point  x-rot      y-rot       z-rot       x-rot vel   y-rot vel   z-rot vel   x-rot acc   y-rot acc   z-rot acc
    22626 -1.97258E-06 4.40881E-05 7.50486E-05 3.63890E-07-5.72786E-05-9.84859E-05 2.37502E-05-1.60390E-04-3.17937E-04



 n o d a l   p r i n t   o u t   f o r   t i m e  s t e p    5801                              ( at time 2.8997098E+00 )

 nodal point  x-disp     y-disp      z-disp      x-vel       y-vel       z-vel      x-accl      y-accl      z-accl      x-coor      y-coor      z-coor
    22626 -4.68674E-03-4.73288E-02-9.06044E+00-7.81543E-03 1.61387E-02-3.15804E+00-1.38593E-03 9.79416E-03-1.68579E-02 4.79595E+01-2.20771E+01-1.72194E+00



 n o d a l   p r i n t   o u t   f o r   t i m e  s t e p    5801                              ( at time 2.8997098E+00 )

 nodal point  x-rot      y-rot       z-rot       x-rot vel   y-rot vel   z-rot vel   x-rot acc   y-rot acc   z-rot acc
    22626 -1.77603E-06 3.76507E-05 6.41425E-05 2.47837E-06-6.66759E-05-1.15450E-04 2.11469E-05-9.39821E-05-1.69663E-04



 n o d a l   p r i n t   o u t   f o r   t i m e  s t e p    6001                              ( at time 2.9996998E+00 )

 nodal point  x-disp     y-disp      z-disp      x-vel       y-vel       z-vel      x-accl      y-accl      z-accl      x-coor      y-coor      z-coor
    22626 -5.50720E-03-4.55971E-02-9.37632E+00-8.82545E-03 1.86331E-02-3.16041E+00-1.01012E-02 2.49460E-02-2.36582E-02 4.79587E+01-2.20754E+01-2.03782E+00



 n o d a l   p r i n t   o u t   f o r   t i m e  s t e p    6001                              ( at time 2.9996998E+00 )

 nodal point  x-rot      y-rot       z-rot       x-rot vel   y-rot vel   z-rot vel   x-rot acc   y-rot acc   z-rot acc
    22626 -1.54513E-06 3.07902E-05 5.25782E-05 6.30101E-07-7.07877E-05-1.20832E-04-1.84845E-05-4.11224E-05-5.38163E-05



 n o d a l   p r i n t   o u t   f o r   t i m e  s t e p    6201                              ( at time 3.0996898E+00 )

 nodal point  x-disp     y-disp      z-disp      x-vel       y-vel       z-vel      x-accl      y-accl      z-accl      x-coor      y-coor      z-coor
    22626 -6.47270E-03-4.36159E-02-9.69245E+00-1.04143E-02 2.05568E-02-3.16240E+00-1.58905E-02 1.92389E-02-1.99386E-02 4.79577E+01-2.20734E+01-2.35395E+00



 n o d a l   p r i n t   o u t   f o r   t i m e  s t e p    6201                              ( at time 3.0996898E+00 )

 nodal point  x-rot      y-rot       z-rot       x-rot vel   y-rot vel   z-rot vel   x-rot acc   y-rot acc   z-rot acc
    22626 -1.59589E-06 2.34304E-05 3.99470E-05-2.05411E-06-7.57233E-05-1.33526E-04-2.68449E-05-4.93606E-05-1.26955E-04



 n o d a l   p r i n t   o u t   f o r   t i m e  s t e p    6401                              ( at time 3.1996798E+00 )

 nodal point  x-disp     y-disp      z-disp      x-vel       y-vel       z-vel      x-accl      y-accl      z-accl      x-coor      y-coor      z-coor
    22626 -7.54390E-03-4.15851E-02-1.00087E+01-1.09378E-02 1.97600E-02-3.16298E+00-5.23487E-03-7.96898E-03-5.79891E-03 4.79566E+01-2.20714E+01-2.67020E+00



 n o d a l   p r i n t   o u t   f o r   t i m e  s t e p    6401                              ( at time 3.1996798E+00 )

 nodal point  x-rot      y-rot       z-rot       x-rot vel   y-rot vel   z-rot vel   x-rot acc   y-rot acc   z-rot acc
    22626 -1.73177E-06 1.53579E-05 2.63495E-05-1.70606E-06-8.53441E-05-1.43929E-04 3.48089E-06-9.62177E-05-1.04038E-04



 n o d a l   p r i n t   o u t   f o r   t i m e  s t e p    6601                              ( at time 3.2996698E+00 )

 nodal point  x-disp     y-disp      z-disp      x-vel       y-vel       z-vel      x-accl      y-accl      z-accl      x-coor      y-coor      z-coor
    22626 -8.64987E-03-3.97055E-02-1.03249E+01-1.11946E-02 1.78277E-02-3.16270E+00-2.56876E-03-1.93247E-02 2.82555E-03 4.79555E+01-2.20695E+01-2.98645E+00



 n o d a l   p r i n t   o u t   f o r   t i m e  s t e p    6601                              ( at time 3.2996698E+00 )

 nodal point  x-rot      y-rot       z-rot       x-rot vel   y-rot vel   z-rot vel   x-rot acc   y-rot acc   z-rot acc
    22626 -1.99934E-06 6.66517E-06 1.15927E-05-2.38247E-06-8.95607E-05-1.51645E-04-6.76479E-06-4.21697E-05-7.71744E-05



 n o d a l   p r i n t   o u t   f o r   t i m e  s t e p    6801                              ( at time 3.3996598E+00 )

 nodal point  x-disp     y-disp      z-disp      x-vel       y-vel       z-vel      x-accl      y-accl      z-accl      x-coor      y-coor      z-coor
    22626 -9.80036E-03-3.80143E-02-1.06412E+01-1.17036E-02 1.60329E-02-3.16262E+00-5.09066E-03-1.79502E-02 7.98781E-04 4.79544E+01-2.20678E+01-3.30268E+00



 n o d a l   p r i n t   o u t   f o r   t i m e  s t e p    6801                              ( at time 3.3996598E+00 )

 nodal point  x-rot      y-rot       z-rot       x-rot vel   y-rot vel   z-rot vel   x-rot acc   y-rot acc   z-rot acc
    22626 -2.04864E-06-2.22424E-06-3.70012E-06-2.73758E-06-8.81204E-05-1.53229E-04-3.55150E-06 1.44045E-05-1.58348E-05



 n o d a l   p r i n t   o u t   f o r   t i m e  s t e p    7001                              ( at time 3.4996498E+00 )

 nodal point  x-disp     y-disp      z-disp      x-vel       y-vel       z-vel      x-accl      y-accl      z-accl      x-coor      y-coor      z-coor
    22626 -1.09981E-02-3.64845E-02-1.09574E+01-1.23299E-02 1.44903E-02-3.16282E+00-6.26305E-03-1.54271E-02-1.99815E-03 4.79532E+01-2.20663E+01-3.61893E+00



 n o d a l   p r i n t   o u t   f o r   t i m e  s t e p    7001                              ( at time 3.4996498E+00 )

 nodal point  x-rot      y-rot       z-rot       x-rot vel   y-rot vel   z-rot vel   x-rot acc   y-rot acc   z-rot acc
    22626 -2.04180E-06-1.08864E-05-1.85320E-05 6.08510E-07-8.71003E-05-1.47402E-04 3.34643E-05 1.02013E-05 5.82680E-05



 n o d a l   p r i n t   o u t   f o r   t i m e  s t e p    7201                              ( at time 3.5996397E+00 )

 nodal point  x-disp     y-disp      z-disp      x-vel       y-vel       z-vel      x-accl      y-accl      z-accl      x-coor      y-coor      z-coor
    22626 -1.22526E-02-3.51415E-02-1.12737E+01-1.24050E-02 1.20949E-02-3.16260E+00-7.51551E-04-2.39561E-02 2.12214E-03 4.79519E+01-2.20649E+01-3.93517E+00



 n o d a l   p r i n t   o u t   f o r   t i m e  s t e p    7201                              ( at time 3.5996397E+00 )

 nodal point  x-rot      y-rot       z-rot       x-rot vel   y-rot vel   z-rot vel   x-rot acc   y-rot acc   z-rot acc
    22626 -2.05381E-06-1.95100E-05-3.30147E-05 2.05225E-06-8.45595E-05-1.38469E-04 1.44388E-05 2.54104E-05 8.93379E-05



 n o d a l   p r i n t   o u t   f o r   t i m e  s t e p    7401                              ( at time 3.6996297E+00 )

 nodal point  x-disp     y-disp      z-disp      x-vel       y-vel       z-vel      x-accl      y-accl      z-accl      x-coor      y-coor      z-coor
    22626 -1.34825E-02-3.40979E-02-1.15899E+01-1.21390E-02 8.70695E-03-3.16159E+00 2.66043E-03-3.38831E-02 1.01171E-02 4.79507E+01-2.20639E+01-4.25135E+00



 n o d a l   p r i n t   o u t   f o r   t i m e  s t e p    7401                              ( at time 3.6996297E+00 )

 nodal point  x-rot      y-rot       z-rot       x-rot vel   y-rot vel   z-rot vel   x-rot acc   y-rot acc   z-rot acc
    22626 -1.80091E-06-2.77950E-05-4.68051E-05 3.82556E-06-8.12815E-05-1.36262E-04 1.77349E-05 3.27832E-05 2.20769E-05



 n o d a l   p r i n t   o u t   f o r   t i m e  s t e p    7601                              ( at time 3.7996197E+00 )

 nodal point  x-disp     y-disp      z-disp      x-vel       y-vel       z-vel      x-accl      y-accl      z-accl      x-coor      y-coor      z-coor
    22626 -1.46676E-02-3.33651E-02-1.19059E+01-1.15824E-02 6.00988E-03-3.16088E+00 5.56619E-03-2.69735E-02 7.07459E-03 4.79495E+01-2.20632E+01-4.56744E+00



 n o d a l   p r i n t   o u t   f o r   t i m e  s t e p    7601                              ( at time 3.7996197E+00 )

 nodal point  x-rot      y-rot       z-rot       x-rot vel   y-rot vel   z-rot vel   x-rot acc   y-rot acc   z-rot acc
    22626 -1.33639E-06-3.56116E-05-6.00735E-05 5.24253E-06-7.23235E-05-1.21843E-04 1.41711E-05 8.95898E-05 1.44207E-04



 n o d a l   p r i n t   o u t   f o r   t i m e  s t e p    7801                              ( at time 3.8996097E+00 )

 nodal point  x-disp     y-disp      z-disp      x-vel       y-vel       z-vel      x-accl      y-accl      z-accl      x-coor      y-coor      z-coor
    22626 -1.57949E-02-3.28642E-02-1.22220E+01-1.09344E-02 4.21960E-03-3.16080E+00 6.48156E-03-1.79046E-02 7.98781E-04 4.79484E+01-2.20627E+01-4.88349E+00



 n o d a l   p r i n t   o u t   f o r   t i m e  s t e p    7801                              ( at time 3.8996097E+00 )

 nodal point  x-rot      y-rot       z-rot       x-rot vel   y-rot vel   z-rot vel   x-rot acc   y-rot acc   z-rot acc
    22626 -9.77497E-07-4.22104E-05-7.11918E-05 4.44912E-07-5.76344E-05-9.61704E-05-4.79809E-05 1.46905E-04 2.56749E-04



 n o d a l   p r i n t   o u t   f o r   t i m e  s t e p    8001                              ( at time 3.9995997E+00 )

 nodal point  x-disp     y-disp      z-disp      x-vel       y-vel       z-vel      x-accl      y-accl      z-accl      x-coor      y-coor      z-coor
    22626 -1.68625E-02-3.24938E-02-1.25381E+01-1.03906E-02 3.14005E-03-3.16114E+00 5.43769E-03-1.07966E-02-3.36443E-03 4.79473E+01-2.20623E+01-5.19956E+00



 n o d a l   p r i n t   o u t   f o r   t i m e  s t e p    8001                              ( at time 3.9995997E+00 )

 nodal point  x-rot      y-rot       z-rot       x-rot vel   y-rot vel   z-rot vel   x-rot acc   y-rot acc   z-rot acc
    22626 -8.52034E-07-4.74563E-05-7.98759E-05-1.79102E-07-4.67412E-05-8.00072E-05-6.24078E-06 1.08944E-04 1.61649E-04



 n o d a l   p r i n t   o u t   f o r   t i m e  s t e p    8201                              ( at time 4.0995897E+00 )

 nodal point  x-disp     y-disp      z-disp      x-vel       y-vel       z-vel      x-accl      y-accl      z-accl      x-coor      y-coor      z-coor
    22626 -1.78190E-02-3.22943E-02-1.28541E+01-8.60487E-03 6.36019E-04-3.16064E+00 1.78594E-02-2.50428E-02 5.05259E-03 4.79464E+01-2.20621E+01-5.51562E+00



 n o d a l   p r i n t   o u t   f o r   t i m e  s t e p    8201                              ( at time 4.0995897E+00 )

 nodal point  x-rot      y-rot       z-rot       x-rot vel   y-rot vel   z-rot vel   x-rot acc   y-rot acc   z-rot acc
    22626 -8.57714E-07-5.15868E-05-8.68475E-05-9.15820E-08-3.22970E-05-5.65579E-05 8.75289E-07 1.44456E-04 2.34516E-04



 n o d a l   p r i n t   o u t   f o r   t i m e  s t e p    8401                              ( at time 4.1995797E+00 )

 nodal point  x-disp     y-disp      z-disp      x-vel       y-vel       z-vel      x-accl      y-accl      z-accl      x-coor      y-coor      z-coor
    22626 -1.86000E-02-3.23568E-02-1.31701E+01-6.96235E-03-1.79714E-03-3.16004E+00 1.64269E-02-2.43341E-02 5.94914E-03 4.79456E+01-2.20621E+01-5.83162E+00



 n o d a l   p r i n t   o u t   f o r   t i m e  s t e p    8401                              ( at time 4.1995797E+00 )

 nodal point  x-rot      y-rot       z-rot       x-rot vel   y-rot vel   z-rot vel   x-rot acc   y-rot acc   z-rot acc
    22626 -8.44327E-07-5.39609E-05-9.07955E-05-2.52192E-07-1.40518E-05-2.27617E-05-1.60627E-06 1.82470E-04 3.37996E-04



 n o d a l   p r i n t   o u t   f o r   t i m e  s t e p    8601                              ( at time 4.2995697E+00 )

 nodal point  x-disp     y-disp      z-disp      x-vel       y-vel       z-vel      x-accl      y-accl      z-accl      x-coor      y-coor      z-coor
    22626 -1.92333E-02-3.26553E-02-1.34861E+01-5.56211E-03-3.87798E-03-3.15987E+00 1.40038E-02-2.08105E-02 1.67387E-03 4.79449E+01-2.20624E+01-6.14757E+00



 n o d a l   p r i n t   o u t   f o r   t i m e  s t e p    8601                              ( at time 4.2995697E+00 )

 nodal point  x-rot      y-rot       z-rot       x-rot vel   y-rot vel   z-rot vel   x-rot acc   y-rot acc   z-rot acc
    22626 -8.68193E-07-5.44000E-05-9.16520E-05-5.03580E-07 2.76086E-06 4.51075E-06-2.51413E-06 1.68144E-04 2.72752E-04



 n o d a l   p r i n t   o u t   f o r   t i m e  s t e p    8801                              ( at time 4.3995597E+00 )

 nodal point  x-disp     y-disp      z-disp      x-vel       y-vel       z-vel      x-accl      y-accl      z-accl      x-coor      y-coor      z-coor
    22626 -1.96998E-02-3.30841E-02-1.38021E+01-3.80340E-03-4.73943E-03-3.16047E+00 1.75889E-02-8.61535E-03-5.99922E-03 4.79445E+01-2.20629E+01-6.46355E+00



 n o d a l   p r i n t   o u t   f o r   t i m e  s t e p    8801                              ( at time 4.3995597E+00 )

 nodal point  x-rot      y-rot       z-rot       x-rot vel   y-rot vel   z-rot vel   x-rot acc   y-rot acc   z-rot acc
    22626 -8.44448E-07-5.31228E-05-8.93303E-05 7.59296E-07 2.23612E-05 4.00688E-05 1.26300E-05 1.96024E-04 3.55616E-04



 n o d a l   p r i n t   o u t   f o r   t i m e  s t e p    9001                              ( at time 4.4995497E+00 )

 nodal point  x-disp     y-disp      z-disp      x-vel       y-vel       z-vel      x-accl      y-accl      z-accl      x-coor      y-coor      z-coor
    22626 -1.99972E-02-3.36538E-02-1.41181E+01-2.04430E-03-6.99837E-03-3.16009E+00 1.75927E-02-2.25915E-02 3.79122E-03 4.79442E+01-2.20634E+01-6.77956E+00



 n o d a l   p r i n t   o u t   f o r   t i m e  s t e p    9001                              ( at time 4.4995497E+00 )

 nodal point  x-rot      y-rot       z-rot       x-rot vel   y-rot vel   z-rot vel   x-rot acc   y-rot acc   z-rot acc
    22626 -7.10053E-07-4.96577E-05-8.32213E-05 3.55860E-06 4.39270E-05 7.66838E-05 2.79957E-05 2.15679E-04 3.66186E-04



 n o d a l   p r i n t   o u t   f o r   t i m e  s t e p    9201                              ( at time 4.5995397E+00 )

 nodal point  x-disp     y-disp      z-disp      x-vel       y-vel       z-vel      x-accl      y-accl      z-accl      x-coor      y-coor      z-coor
    22626 -2.01083E-02-3.45072E-02-1.44340E+01-1.25457E-04-9.88967E-03-3.15950E+00 1.91903E-02-2.89160E-02 5.89907E-03 4.79441E+01-2.20643E+01-7.09550E+00



 n o d a l   p r i n t   o u t   f o r   t i m e  s t e p    9201                              ( at time 4.5995397E+00 )

 nodal point  x-rot      y-rot       z-rot       x-rot vel   y-rot vel   z-rot vel   x-rot acc   y-rot acc   z-rot acc
    22626 -4.04859E-07-4.44367E-05-7.41121E-05 4.04290E-06 5.98795E-05 1.02840E-04 4.84355E-06 1.59541E-04 2.61588E-04



 n o d a l   p r i n t   o u t   f o r   t i m e  s t e p    9401                              ( at time 4.6995297E+00 )

 nodal point  x-disp     y-disp      z-disp      x-vel       y-vel       z-vel      x-accl      y-accl      z-accl      x-coor      y-coor      z-coor
    22626 -2.00037E-02-3.55777E-02-1.47499E+01 2.11231E-03-1.15029E-02-3.15935E+00 2.23799E-02-1.61338E-02 1.52126E-03 4.79442E+01-2.20654E+01-7.41141E+00



 n o d a l   p r i n t   o u t   f o r   t i m e  s t e p    9401                              ( at time 4.6995297E+00 )

 nodal point  x-rot      y-rot       z-rot       x-rot vel   y-rot vel   z-rot vel   x-rot acc   y-rot acc   z-rot acc
    22626 -3.35641E-08-3.72843E-05-6.16737E-05 2.77291E-06 8.46870E-05 1.45409E-04-1.27012E-05 2.48100E-04 4.25736E-04



 n o d a l   p r i n t   o u t   f o r   t i m e  s t e p    9601                              ( at time 4.7995197E+00 )

 nodal point  x-disp     y-disp      z-disp      x-vel       y-vel       z-vel      x-accl      y-accl      z-accl      x-coor      y-coor      z-coor
    22626 -1.96923E-02-3.67995E-02-1.50658E+01 3.99383E-03-1.27518E-02-3.15962E+00 1.88171E-02-1.24904E-02-2.62525E-03 4.79445E+01-2.20666E+01-7.72733E+00



 n o d a l   p r i n t   o u t   f o r   t i m e  s t e p    9601                              ( at time 4.7995197E+00 )

 nodal point  x-rot      y-rot       z-rot       x-rot vel   y-rot vel   z-rot vel   x-rot acc   y-rot acc   z-rot acc
    22626  2.63884E-07-2.75735E-05-4.50273E-05-1.68829E-07 1.09200E-04 1.87206E-04-2.94204E-05 2.45155E-04 4.18007E-04



 n o d a l   p r i n t   o u t   f o r   t i m e  s t e p    9801                              ( at time 4.8995097E+00 )

 nodal point  x-disp     y-disp      z-disp      x-vel       y-vel       z-vel      x-accl      y-accl      z-accl      x-coor      y-coor      z-coor
    22626 -1.92029E-02-3.81255E-02-1.53818E+01 5.77806E-03-1.38618E-02-3.15986E+00 1.78442E-02-1.11014E-02-2.45596E-03 4.79450E+01-2.20679E+01-8.04327E+00



 n o d a l   p r i n t   o u t   f o r   t i m e  s t e p    9801                              ( at time 4.8995097E+00 )

 nodal point  x-rot      y-rot       z-rot       x-rot vel   y-rot vel   z-rot vel   x-rot acc   y-rot acc   z-rot acc
    22626  2.85662E-07-1.57312E-05-2.46742E-05-1.01251E-06 1.26252E-04 2.16711E-04-8.43763E-06 1.70533E-04 2.95084E-04



 n o d a l   p r i n t   o u t   f o r   t i m e  s t e p   10001                              ( at time 4.9994997E+00 )

 nodal point  x-disp     y-disp      z-disp      x-vel       y-vel       z-vel      x-accl      y-accl      z-accl      x-coor      y-coor      z-coor
    22626 -1.85098E-02-3.96040E-02-1.56977E+01 8.02016E-03-1.57760E-02-3.15969E+00 2.24231E-02-1.91435E-02 1.72632E-03 4.79457E+01-2.20694E+01-8.35922E+00



 n o d a l   p r i n t   o u t   f o r   t i m e  s t e p   10001                              ( at time 4.9994997E+00 )

 nodal point  x-rot      y-rot       z-rot       x-rot vel   y-rot vel   z-rot vel   x-rot acc   y-rot acc   z-rot acc
    22626  1.68791E-07-2.18119E-06-1.43217E-06-7.35176E-07 1.44087E-04 2.47555E-04 2.77357E-06 1.78373E-04 3.08467E-04



 n o d a l   p r i n t   o u t   f o r   t i m e  s t e p   10202                              ( at time 5.0999896E+00 )

 nodal point  x-disp     y-disp      z-disp      x-vel       y-vel       z-vel      x-accl      y-accl      z-accl      x-coor      y-coor      z-coor
    22626 -1.75930E-02-4.12678E-02-1.60152E+01 1.03249E-02-1.73540E-02-3.15939E+00 2.29350E-02-1.57030E-02 2.91826E-03 4.79466E+01-2.20711E+01-8.67673E+00



 n o d a l   p r i n t   o u t   f o r   t i m e  s t e p   10202                              ( at time 5.0999896E+00 )

 nodal point  x-rot      y-rot       z-rot       x-rot vel   y-rot vel   z-rot vel   x-rot acc   y-rot acc   z-rot acc
    22626 -9.40207E-08 1.35957E-05 2.55163E-05-8.78891E-06 1.69801E-04 2.91427E-04-8.01449E-05 2.55886E-04 4.36583E-04



 n o d a l   p r i n t   o u t   f o r   t i m e  s t e p   10402                              ( at time 5.1999796E+00 )

 nodal point  x-disp     y-disp      z-disp      x-vel       y-vel       z-vel      x-accl      y-accl      z-accl      x-coor      y-coor      z-coor
    22626 -1.64909E-02-4.29934E-02-1.63311E+01 1.16643E-02-1.65774E-02-3.15820E+00 1.33957E-02 7.76660E-03 1.19817E-02 4.79477E+01-2.20728E+01-8.99257E+00



 n o d a l   p r i n t   o u t   f o r   t i m e  s t e p   10402                              ( at time 5.1999796E+00 )

 nodal point  x-rot      y-rot       z-rot       x-rot vel   y-rot vel   z-rot vel   x-rot acc   y-rot acc   z-rot acc
    22626 -5.44410E-07 3.25005E-05 5.54980E-05 3.38208E-06 2.04544E-04 3.11081E-04 1.21722E-04 3.47462E-04 1.96555E-04



 n o d a l   p r i n t   o u t   f o r   t i m e  s t e p   10602                              ( at time 5.2999696E+00 )

 nodal point  x-disp     y-disp      z-disp      x-vel       y-vel       z-vel      x-accl      y-accl      z-accl      x-coor      y-coor      z-coor
    22626 -1.52460E-02-4.46238E-02-1.66467E+01 1.27691E-02-1.53456E-02-3.15346E+00 1.10489E-02 1.23189E-02 4.74239E-02 4.79489E+01-2.20744E+01-9.30819E+00



 n o d a l   p r i n t   o u t   f o r   t i m e  s t e p   10602                              ( at time 5.2999696E+00 )

 nodal point  x-rot      y-rot       z-rot       x-rot vel   y-rot vel   z-rot vel   x-rot acc   y-rot acc   z-rot acc
    22626 -1.12114E-08 5.67283E-05 8.78323E-05 1.51040E-05 2.79767E-04 3.24634E-04 1.17231E-04 7.52305E-04 1.35545E-04



 n o d a l   p r i n t   o u t   f o r   t i m e  s t e p   10802                              ( at time 5.3999596E+00 )

 nodal point  x-disp     y-disp      z-disp      x-vel       y-vel       z-vel      x-accl      y-accl      z-accl      x-coor      y-coor      z-coor
    22626 -1.39044E-02-4.60753E-02-1.69616E+01 1.35422E-02-1.21896E-02-3.14374E+00 7.73156E-03 3.15638E-02 9.71988E-02 4.79503E+01-2.20759E+01-9.62307E+00



 n o d a l   p r i n t   o u t   f o r   t i m e  s t e p   10802                              ( at time 5.3999596E+00 )

 nodal point  x-rot      y-rot       z-rot       x-rot vel   y-rot vel   z-rot vel   x-rot acc   y-rot acc   z-rot acc
    22626  3.89482E-06 9.06499E-05 1.20263E-04 8.33629E-05 4.05674E-04 3.05141E-04 6.82659E-04 1.25920E-03-1.94949E-04



 n o d a l   p r i n t   o u t   f o r   t i m e  s t e p   11002                              ( at time 5.4999496E+00 )

 nodal point  x-disp     y-disp      z-disp      x-vel       y-vel       z-vel      x-accl      y-accl      z-accl      x-coor      y-coor      z-coor
    22626 -1.24157E-02-4.72321E-02-1.72752E+01 1.52433E-02-8.85327E-03-3.12814E+00 1.70134E-02 3.33665E-02 1.56018E-01 4.79518E+01-2.20770E+01-9.93672E+00



 n o d a l   p r i n t   o u t   f o r   t i m e  s t e p   11002                              ( at time 5.4999496E+00 )

 nodal point  x-rot      y-rot       z-rot       x-rot vel   y-rot vel   z-rot vel   x-rot acc   y-rot acc   z-rot acc
    22626  1.46215E-05 1.38758E-04 1.51561E-04 1.43596E-04 5.61115E-04 2.91502E-04 6.02392E-04 1.55457E-03-1.36406E-04



 n o d a l   p r i n t   o u t   f o r   t i m e  s t e p   11202                              ( at time 5.5999396E+00 )

 nodal point  x-disp     y-disp      z-disp      x-vel       y-vel       z-vel      x-accl      y-accl      z-accl      x-coor      y-coor      z-coor
    22626 -1.07693E-02-4.79135E-02-1.75871E+01 1.73949E-02-4.79658E-03-3.10979E+00 2.15179E-02 4.05710E-02 1.83458E-01 4.79534E+01-2.20777E+01-1.02486E+01



 n o d a l   p r i n t   o u t   f o r   t i m e  s t e p   11202                              ( at time 5.5999396E+00 )

 nodal point  x-rot      y-rot       z-rot       x-rot vel   y-rot vel   z-rot vel   x-rot acc   y-rot acc   z-rot acc
    22626  3.45223E-05 2.04923E-04 1.79610E-04 2.42223E-04 7.70247E-04 2.82855E-04 9.86374E-04 2.09153E-03-8.64727E-05



 n o d a l   p r i n t   o u t   f o r   t i m e  s t e p   11402                              ( at time 5.6999296E+00 )

 nodal point  x-disp     y-disp      z-disp      x-vel       y-vel       z-vel      x-accl      y-accl      z-accl      x-coor      y-coor      z-coor
    22626 -8.97694E-03-4.80602E-02-1.78968E+01 1.90633E-02 9.25834E-04-3.08593E+00 1.66859E-02 5.72296E-02 2.38635E-01 4.79552E+01-2.20779E+01-1.05583E+01



 n o d a l   p r i n t   o u t   f o r   t i m e  s t e p   11402                              ( at time 5.6999296E+00 )

 nodal point  x-rot      y-rot       z-rot       x-rot vel   y-rot vel   z-rot vel   x-rot acc   y-rot acc   z-rot acc
    22626  6.46596E-05 2.93848E-04 2.04587E-04 3.37915E-04 1.00218E-03 2.39381E-04 9.57009E-04 2.31952E-03-4.34780E-04



 n o d a l   p r i n t   o u t   f o r   t i m e  s t e p   11602                              ( at time 5.7999195E+00 )

 nodal point  x-disp     y-disp      z-disp      x-vel       y-vel       z-vel      x-accl      y-accl      z-accl      x-coor      y-coor      z-coor
    22626 -7.01231E-03-4.76172E-02-1.82042E+01 2.01271E-02 7.39520E-03-3.05929E+00 1.06388E-02 6.47002E-02 2.66460E-01 4.79572E+01-2.20774E+01-1.08657E+01



 n o d a l   p r i n t   o u t   f o r   t i m e  s t e p   11602                              ( at time 5.7999195E+00 )

 nodal point  x-rot      y-rot       z-rot       x-rot vel   y-rot vel   z-rot vel   x-rot acc   y-rot acc   z-rot acc
    22626  1.06355E-04 4.07340E-04 2.24448E-04 4.88728E-04 1.28511E-03 1.67189E-04 1.50828E-03 2.82965E-03-7.21992E-04



 n o d a l   p r i n t   o u t   f o r   t i m e  s t e p   11802                              ( at time 5.8999095E+00 )

 nodal point  x-disp     y-disp      z-disp      x-vel       y-vel       z-vel      x-accl      y-accl      z-accl      x-coor      y-coor      z-coor
    22626 -4.90246E-03-4.65900E-02-1.85087E+01 2.31238E-02 1.20239E-02-3.03037E+00 2.99697E-02 4.62913E-02 2.89231E-01 4.79593E+01-2.20764E+01-1.11702E+01



 n o d a l   p r i n t   o u t   f o r   t i m e  s t e p   11802                              ( at time 5.8999095E+00 )

 nodal point  x-rot      y-rot       z-rot       x-rot vel   y-rot vel   z-rot vel   x-rot acc   y-rot acc   z-rot acc
    22626  1.62387E-04 5.48456E-04 2.37403E-04 6.21958E-04 1.56945E-03 1.11642E-04 1.33244E-03 2.84363E-03-5.55532E-04



 n o d a l   p r i n t   o u t   f o r   t i m e  s t e p   12002                              ( at time 5.9998995E+00 )

 nodal point  x-disp     y-disp      z-disp      x-vel       y-vel       z-vel      x-accl      y-accl      z-accl      x-coor      y-coor      z-coor
    22626 -2.55191E-03-4.50632E-02-1.88099E+01 2.55548E-02 1.82696E-02-2.99676E+00 2.43128E-02 6.24639E-02 3.36109E-01 4.79616E+01-2.20749E+01-1.14714E+01



 n o d a l   p r i n t   o u t   f o r   t i m e  s t e p   12002                              ( at time 5.9998995E+00 )

 nodal point  x-rot      y-rot       z-rot       x-rot vel   y-rot vel   z-rot vel   x-rot acc   y-rot acc   z-rot acc
    22626  2.32792E-04 7.20584E-04 2.43431E-04 7.93629E-04 1.87684E-03 1.88960E-05 1.71688E-03 3.07426E-03-9.27553E-04



 n o d a l   p r i n t   o u t   f o r   t i m e  s t e p   12202                              ( at time 6.0998895E+00 )

 nodal point  x-disp     y-disp      z-disp      x-vel       y-vel       z-vel      x-accl      y-accl      z-accl      x-coor      y-coor      z-coor
    22626 -2.02801E-05-4.29021E-02-1.91078E+01 2.64377E-02 2.52682E-02-2.96140E+00 8.82921E-03 6.99922E-02 3.53597E-01 4.79642E+01-2.20727E+01-1.17693E+01



 n o d a l   p r i n t   o u t   f o r   t i m e  s t e p   12202                              ( at time 6.0998895E+00 )

 nodal point  x-rot      y-rot       z-rot       x-rot vel   y-rot vel   z-rot vel   x-rot acc   y-rot acc   z-rot acc
    22626  3.18846E-04 9.23759E-04 2.41220E-04 9.43753E-04 2.20322E-03-6.80018E-05 1.50139E-03 3.26408E-03-8.69062E-04



 n o d a l   p r i n t   o u t   f o r   t i m e  s t e p   12402                              ( at time 6.1998795E+00 )

 nodal point  x-disp     y-disp      z-disp      x-vel       y-vel       z-vel      x-accl      y-accl      z-accl      x-coor      y-coor      z-coor
    22626  2.70152E-03-4.01067E-02-1.94021E+01 2.87116E-02 3.14212E-02-2.92548E+00 2.27422E-02 6.15368E-02 3.59295E-01 4.79669E+01-2.20699E+01-1.20636E+01



 n o d a l   p r i n t   o u t   f o r   t i m e  s t e p   12402                              ( at time 6.1998795E+00 )

 nodal point  x-rot      y-rot       z-rot       x-rot vel   y-rot vel   z-rot vel   x-rot acc   y-rot acc   z-rot acc
    22626  4.20780E-04 1.16011E-03 2.29910E-04 1.10871E-03 2.52007E-03-1.68674E-04 1.64975E-03 3.16885E-03-1.00682E-03



 n o d a l   p r i n t   o u t   f o r   t i m e  s t e p   12602                              ( at time 6.2998695E+00 )

 nodal point  x-disp     y-disp      z-disp      x-vel       y-vel       z-vel      x-accl      y-accl      z-accl      x-coor      y-coor      z-coor
    22626  5.76763E-03-3.66409E-02-1.96926E+01 3.24315E-02 3.69955E-02-2.88589E+00 3.72019E-02 5.57483E-02 3.95908E-01 4.79699E+01-2.20664E+01-1.23541E+01



 n o d a l   p r i n t   o u t   f o r   t i m e  s t e p   12602                              ( at time 6.2998695E+00 )

 nodal point  x-rot      y-rot       z-rot       x-rot vel   y-rot vel   z-rot vel   x-rot acc   y-rot acc   z-rot acc
    22626  5.39873E-04 1.42938E-03 2.08147E-04 1.27295E-03 2.84780E-03-2.66563E-04 1.64257E-03 3.27757E-03-9.78989E-04



 n o d a l   p r i n t   o u t   f o r   t i m e  s t e p   12802                              ( at time 6.3998595E+00 )

 nodal point  x-disp     y-disp      z-disp      x-vel       y-vel       z-vel      x-accl      y-accl      z-accl      x-coor      y-coor      z-coor
    22626  9.23248E-03-3.26326E-02-1.99791E+01 3.67102E-02 4.44367E-02-2.84409E+00 4.27918E-02 7.44198E-02 4.18088E-01 4.79734E+01-2.20624E+01-1.26406E+01



 n o d a l   p r i n t   o u t   f o r   t i m e  s t e p   12802                              ( at time 6.3998595E+00 )

 nodal point  x-rot      y-rot       z-rot       x-rot vel   y-rot vel   z-rot vel   x-rot acc   y-rot acc   z-rot acc
    22626  6.75403E-04 1.73213E-03 1.75881E-04 1.44440E-03 3.20713E-03-3.79454E-04 1.71461E-03 3.59369E-03-1.12903E-03



 n o d a l   p r i n t   o u t   f o r   t i m e  s t e p   13002                              ( at time 6.4998495E+00 )

 nodal point  x-disp     y-disp      z-disp      x-vel       y-vel       z-vel      x-accl      y-accl      z-accl      x-coor      y-coor      z-coor
    22626  1.31086E-02-2.78670E-02-2.02615E+01 4.17712E-02 5.10757E-02-2.80316E+00 5.06151E-02 6.63961E-02 4.09265E-01 4.79773E+01-2.20577E+01-1.29230E+01



 n o d a l   p r i n t   o u t   f o r   t i m e  s t e p   13002                              ( at time 6.4998495E+00 )

 nodal point  x-rot      y-rot       z-rot       x-rot vel   y-rot vel   z-rot vel   x-rot acc   y-rot acc   z-rot acc
    22626  8.29368E-04 2.06941E-03 1.33103E-04 1.64203E-03 3.53128E-03-4.70712E-04 1.97656E-03 3.24180E-03-9.12671E-04



 n o d a l   p r i n t   o u t   f o r   t i m e  s t e p   13202                              ( at time 6.5998395E+00 )

 nodal point  x-disp     y-disp      z-disp      x-vel       y-vel       z-vel      x-accl      y-accl      z-accl      x-coor      y-coor      z-coor
    22626  1.75680E-02-2.23189E-02-2.05395E+01 4.82159E-02 5.89006E-02-2.75743E+00 6.44536E-02 7.82568E-02 4.57388E-01 4.79817E+01-2.20521E+01-1.32010E+01



 n o d a l   p r i n t   o u t   f o r   t i m e  s t e p   13202                              ( at time 6.5998395E+00 )

 nodal point  x-rot      y-rot       z-rot       x-rot vel   y-rot vel   z-rot vel   x-rot acc   y-rot acc   z-rot acc
    22626  1.00340E-03 2.44134E-03 7.85437E-05 1.81869E-03 3.89128E-03-5.97891E-04 1.76672E-03 3.60039E-03-1.27192E-03



 n o d a l   p r i n t   o u t   f o r   t i m e  s t e p   13402                              ( at time 6.6998295E+00 )

 nodal point  x-disp     y-disp      z-disp      x-vel       y-vel       z-vel      x-accl      y-accl      z-accl      x-coor      y-coor      z-coor
    22626  2.26439E-02-1.60835E-02-2.08129E+01 5.39403E-02 6.57335E-02-2.71085E+00 5.72493E-02 6.83358E-02 4.65805E-01 4.79868E+01-2.20459E+01-1.34744E+01



 n o d a l   p r i n t   o u t   f o r   t i m e  s t e p   13402                              ( at time 6.6998295E+00 )

 nodal point  x-rot      y-rot       z-rot       x-rot vel   y-rot vel   z-rot vel   x-rot acc   y-rot acc   z-rot acc
    22626  1.19633E-03 2.84645E-03 1.22867E-05 2.02574E-03 4.21941E-03-7.26594E-04 2.07075E-03 3.28160E-03-1.28716E-03



 n o d a l   p r i n t   o u t   f o r   t i m e  s t e p   13602                              ( at time 6.7998195E+00 )

 nodal point  x-disp     y-disp      z-disp      x-vel       y-vel       z-vel      x-accl      y-accl      z-accl      x-coor      y-coor      z-coor
    22626  2.84237E-02-9.14047E-03-2.10815E+01 6.11908E-02 7.31284E-02-2.66254E+00 7.25127E-02 7.39563E-02 4.83164E-01 4.79926E+01-2.20389E+01-1.37430E+01



 n o d a l   p r i n t   o u t   f o r   t i m e  s t e p   13602                              ( at time 6.7998195E+00 )

 nodal point  x-rot      y-rot       z-rot       x-rot vel   y-rot vel   z-rot vel   x-rot acc   y-rot acc   z-rot acc
    22626  1.41125E-03 3.28360E-03-6.64434E-05 2.25287E-03 4.54737E-03-8.44133E-04 2.27148E-03 3.27997E-03-1.17551E-03



 n o d a l   p r i n t   o u t   f o r   t i m e  s t e p   13802                              ( at time 6.8998095E+00 )

 nodal point  x-disp     y-disp      z-disp      x-vel       y-vel       z-vel      x-accl      y-accl      z-accl      x-coor      y-coor      z-coor
    22626  3.49851E-02-1.41091E-03-2.13452E+01 6.93542E-02 8.06479E-02-2.61360E+00 8.16415E-02 7.52033E-02 4.89516E-01 4.79992E+01-2.20312E+01-1.40067E+01



 n o d a l   p r i n t   o u t   f o r   t i m e  s t e p   13802                              ( at time 6.8998095E+00 )

 nodal point  x-rot      y-rot       z-rot       x-rot vel   y-rot vel   z-rot vel   x-rot acc   y-rot acc   z-rot acc
    22626  1.64693E-03 3.75400E-03-1.57058E-04 2.48339E-03 4.85591E-03-9.64232E-04 2.30547E-03 3.08570E-03-1.20111E-03



 n o d a l   p r i n t   o u t   f o r   t i m e  s t e p   14002                              ( at time 6.9997995E+00 )

 nodal point  x-disp     y-disp      z-disp      x-vel       y-vel       z-vel      x-accl      y-accl      z-accl      x-coor      y-coor      z-coor
    22626  4.23612E-02 6.99668E-03-2.16039E+01 7.73649E-02 8.84289E-02-2.56071E+00 8.01151E-02 7.78174E-02 5.28892E-01 4.80065E+01-2.20228E+01-1.42654E+01



 n o d a l   p r i n t   o u t   f o r   t i m e  s t e p   14002                              ( at time 6.9997995E+00 )

 nodal point  x-rot      y-rot       z-rot       x-rot vel   y-rot vel   z-rot vel   x-rot acc   y-rot acc   z-rot acc
    22626  1.90537E-03 4.25485E-03-2.60144E-04 2.70064E-03 5.17351E-03-1.10769E-03 2.17269E-03 3.17629E-03-1.43468E-03



 n o d a l   p r i n t   o u t   f o r   t i m e  s t e p   14202                              ( at time 7.0997895E+00 )

 nodal point  x-disp     y-disp      z-disp      x-vel       y-vel       z-vel      x-accl      y-accl      z-accl      x-coor      y-coor      z-coor
    22626  5.05682E-02 1.62493E-02-2.18573E+01 8.65207E-02 9.64309E-02-2.50807E+00 9.15677E-02 8.00273E-02 5.26446E-01 4.80147E+01-2.20135E+01-1.45188E+01



 n o d a l   p r i n t   o u t   f o r   t i m e  s t e p   14202                              ( at time 7.0997895E+00 )

 nodal point  x-rot      y-rot       z-rot       x-rot vel   y-rot vel   z-rot vel   x-rot acc   y-rot acc   z-rot acc
    22626  2.18738E-03 4.78700E-03-3.77187E-04 2.93603E-03 5.46830E-03-1.23258E-03 2.35412E-03 2.94826E-03-1.24907E-03



 n o d a l   p r i n t   o u t   f o r   t i m e  s t e p   14402                              ( at time 7.1997794E+00 )

 nodal point  x-disp     y-disp      z-disp      x-vel       y-vel       z-vel      x-accl      y-accl      z-accl      x-coor      y-coor      z-coor
    22626  5.97126E-02 2.61590E-02-2.21053E+01 9.62189E-02 1.01966E-01-2.45176E+00 9.69913E-02 5.53586E-02 5.63206E-01 4.80239E+01-2.20036E+01-1.47668E+01



 n o d a l   p r i n t   o u t   f o r   t i m e  s t e p   14402                              ( at time 7.1997794E+00 )

 nodal point  x-rot      y-rot       z-rot       x-rot vel   y-rot vel   z-rot vel   x-rot acc   y-rot acc   z-rot acc
    22626  2.49325E-03 5.35012E-03-5.05633E-04 3.16882E-03 5.78587E-03-1.34113E-03 2.32822E-03 3.17596E-03-1.08565E-03



 n o d a l   p r i n t   o u t   f o r   t i m e  s t e p   14602                              ( at time 7.2997694E+00 )

 nodal point  x-disp     y-disp      z-disp      x-vel       y-vel       z-vel      x-accl      y-accl      z-accl      x-coor      y-coor      z-coor
    22626  6.98652E-02 3.67065E-02-2.23476E+01 1.06147E-01 1.09335E-01-2.39509E+00 9.92939E-02 7.36964E-02 5.66685E-01 4.80340E+01-2.19931E+01-1.50091E+01



 n o d a l   p r i n t   o u t   f o r   t i m e  s t e p   14602                              ( at time 7.2997694E+00 )

 nodal point  x-rot      y-rot       z-rot       x-rot vel   y-rot vel   z-rot vel   x-rot acc   y-rot acc   z-rot acc
    22626  2.82236E-03 5.94319E-03-6.46985E-04 3.43431E-03 6.07777E-03-1.47697E-03 2.65515E-03 2.91933E-03-1.35849E-03



 n o d a l   p r i n t   o u t   f o r   t i m e  s t e p   14802                              ( at time 7.3997594E+00 )

 nodal point  x-disp     y-disp      z-disp      x-vel       y-vel       z-vel      x-accl      y-accl      z-accl      x-coor      y-coor      z-coor
    22626  8.09579E-02 4.79166E-02-2.25842E+01 1.15694E-01 1.14791E-01-2.33716E+00 9.54812E-02 5.45680E-02 5.79440E-01 4.80451E+01-2.19819E+01-1.52457E+01



 n o d a l   p r i n t   o u t   f o r   t i m e  s t e p   14802                              ( at time 7.3997594E+00 )

 nodal point  x-rot      y-rot       z-rot       x-rot vel   y-rot vel   z-rot vel   x-rot acc   y-rot acc   z-rot acc
    22626  3.17767E-03 6.56474E-03-8.00277E-04 3.68078E-03 6.35348E-03-1.58012E-03 2.46497E-03 2.75738E-03-1.03165E-03



 n o d a l   p r i n t   o u t   f o r   t i m e  s t e p   15002                              ( at time 7.4997494E+00 )

 nodal point  x-disp     y-disp      z-disp      x-vel       y-vel       z-vel      x-accl      y-accl      z-accl      x-coor      y-coor      z-coor
    22626  9.29858E-02 5.96304E-02-2.28149E+01 1.25363E-01 1.19631E-01-2.27614E+00 9.66962E-02 4.84021E-02 6.10212E-01 4.80572E+01-2.19702E+01-1.54764E+01



 n o d a l   p r i n t   o u t   f o r   t i m e  s t e p   15002                              ( at time 7.4997494E+00 )

 nodal point  x-rot      y-rot       z-rot       x-rot vel   y-rot vel   z-rot vel   x-rot acc   y-rot acc   z-rot acc
    22626  3.55787E-03 7.21463E-03-9.64184E-04 3.94019E-03 6.65140E-03-1.68663E-03 2.59433E-03 2.97949E-03-1.06518E-03



 n o d a l   p r i n t   o u t   f o r   t i m e  s t e p   15202                              ( at time 7.5997394E+00 )

 nodal point  x-disp     y-disp      z-disp      x-vel       y-vel       z-vel      x-accl      y-accl      z-accl      x-coor      y-coor      z-coor
    22626  1.05897E-01 7.17797E-02-2.30394E+01 1.33554E-01 1.23402E-01-2.21490E+00 8.19194E-02 3.77167E-02 6.12440E-01 4.80701E+01-2.19580E+01-1.57009E+01



 n o d a l   p r i n t   o u t   f o r   t i m e  s t e p   15202                              ( at time 7.5997394E+00 )

 nodal point  x-rot      y-rot       z-rot       x-rot vel   y-rot vel   z-rot vel   x-rot acc   y-rot acc   z-rot acc
    22626  3.96709E-03 7.89254E-03-1.13909E-03 4.22430E-03 6.90972E-03-1.80123E-03 2.84140E-03 2.58343E-03-1.14605E-03



 n o d a l   p r i n t   o u t   f o r   t i m e  s t e p   15402                              ( at time 7.6997294E+00 )

 nodal point  x-disp     y-disp      z-disp      x-vel       y-vel       z-vel      x-accl      y-accl      z-accl      x-coor      y-coor      z-coor
    22626  1.19723E-01 8.42626E-02-2.32577E+01 1.42188E-01 1.25861E-01-2.15091E+00 8.63499E-02 2.45869E-02 6.39994E-01 4.80839E+01-2.19455E+01-1.59192E+01



 n o d a l   p r i n t   o u t   f o r   t i m e  s t e p   15402                              ( at time 7.6997294E+00 )

 nodal point  x-rot      y-rot       z-rot       x-rot vel   y-rot vel   z-rot vel   x-rot acc   y-rot acc   z-rot acc
    22626  4.40406E-03 8.59767E-03-1.32525E-03 4.51189E-03 7.17384E-03-1.91558E-03 2.87619E-03 2.64146E-03-1.14367E-03



 n o d a l   p r i n t   o u t   f o r   t i m e  s t e p   15602                              ( at time 7.7997194E+00 )

 nodal point  x-disp     y-disp      z-disp      x-vel       y-vel       z-vel      x-accl      y-accl      z-accl      x-coor      y-coor      z-coor
    22626  1.34415E-01 9.69927E-02-2.34695E+01 1.51029E-01 1.29479E-01-2.08591E+00 8.84111E-02 3.61829E-02 6.50076E-01 4.80986E+01-2.19328E+01-1.61310E+01



 n o d a l   p r i n t   o u t   f o r   t i m e  s t e p   15602                              ( at time 7.7997194E+00 )

 nodal point  x-rot      y-rot       z-rot       x-rot vel   y-rot vel   z-rot vel   x-rot acc   y-rot acc   z-rot acc
    22626  4.87082E-03 9.32853E-03-1.52091E-03 4.83479E-03 7.44449E-03-2.00647E-03 3.22931E-03 2.70681E-03-9.08978E-04



 n o d a l   p r i n t   o u t   f o r   t i m e  s t e p   15802                              ( at time 7.8997094E+00 )

 nodal point  x-disp     y-disp      z-disp      x-vel       y-vel       z-vel      x-accl      y-accl      z-accl      x-coor      y-coor      z-coor
    22626  1.49912E-01 1.10051E-01-2.36748E+01 1.58969E-01 1.31543E-01-2.02013E+00 7.94078E-02 2.06448E-02 6.57820E-01 4.81141E+01-2.19197E+01-1.63363E+01



 n o d a l   p r i n t   o u t   f o r   t i m e  s t e p   15802                              ( at time 7.8997094E+00 )

 nodal point  x-rot      y-rot       z-rot       x-rot vel   y-rot vel   z-rot vel   x-rot acc   y-rot acc   z-rot acc
    22626  5.36868E-03 1.00856E-02-1.72476E-03 5.13276E-03 7.69467E-03-2.07739E-03 2.97995E-03 2.50201E-03-7.09320E-04



 n o d a l   p r i n t   o u t   f o r   t i m e  s t e p   16002                              ( at time 7.9996994E+00 )

 nodal point  x-disp     y-disp      z-disp      x-vel       y-vel       z-vel      x-accl      y-accl      z-accl      x-coor      y-coor      z-coor
    22626  1.66136E-01 1.23317E-01-2.38734E+01 1.66005E-01 1.32821E-01-1.95334E+00 7.03680E-02 1.27778E-02 6.67993E-01 4.81303E+01-2.19065E+01-1.65349E+01



 n o d a l   p r i n t   o u t   f o r   t i m e  s t e p   16002                              ( at time 7.9996994E+00 )

 nodal point  x-rot      y-rot       z-rot       x-rot vel   y-rot vel   z-rot vel   x-rot acc   y-rot acc   z-rot acc
    22626  5.89844E-03 1.08676E-02-1.93781E-03 5.44398E-03 7.93281E-03-2.17193E-03 3.11255E-03 2.38160E-03-9.45451E-04



 n o d a l   p r i n t   o u t   f o r   t i m e  s t e p   16202                              ( at time 8.0996894E+00 )

 nodal point  x-disp     y-disp      z-disp      x-vel       y-vel       z-vel      x-accl      y-accl      z-accl      x-coor      y-coor      z-coor
    22626  1.83165E-01 1.36635E-01-2.40653E+01 1.74750E-01 1.34186E-01-1.88513E+00 8.74657E-02 1.36565E-02 6.82134E-01 4.81473E+01-2.18932E+01-1.67268E+01



 n o d a l   p r i n t   o u t   f o r   t i m e  s t e p   16202                              ( at time 8.0996894E+00 )

 nodal point  x-rot      y-rot       z-rot       x-rot vel   y-rot vel   z-rot vel   x-rot acc   y-rot acc   z-rot acc
    22626  6.45957E-03 1.16715E-02-2.15862E-03 5.76280E-03 8.15807E-03-2.25040E-03 3.18851E-03 2.25286E-03-7.84823E-04



 n o d a l   p r i n t   o u t   f o r   t i m e  s t e p   16402                              ( at time 8.1996794E+00 )

 nodal point  x-disp     y-disp      z-disp      x-vel       y-vel       z-vel      x-accl      y-accl      z-accl      x-coor      y-coor      z-coor
    22626  2.00997E-01 1.50080E-01-2.42504E+01 1.82059E-01 1.34886E-01-1.81751E+00 7.30986E-02 7.00083E-03 6.76327E-01 4.81652E+01-2.18797E+01-1.69119E+01



 n o d a l   p r i n t   o u t   f o r   t i m e  s t e p   16402                              ( at time 8.1996794E+00 )

 nodal point  x-rot      y-rot       z-rot       x-rot vel   y-rot vel   z-rot vel   x-rot acc   y-rot acc   z-rot acc
    22626  7.05373E-03 1.24982E-02-2.38618E-03 6.11970E-03 8.36243E-03-2.30945E-03 3.56933E-03 2.04377E-03-5.90525E-04



 n o d a l   p r i n t   o u t   f o r   t i m e  s t e p   16602                              ( at time 8.2996694E+00 )

 nodal point  x-disp     y-disp      z-disp      x-vel       y-vel       z-vel      x-accl      y-accl      z-accl      x-coor      y-coor      z-coor
    22626  2.19581E-01 1.63586E-01-2.44287E+01 1.90618E-01 1.34841E-01-1.74833E+00 8.55905E-02-4.48421E-04 6.91840E-01 4.81838E+01-2.18662E+01-1.70902E+01



 n o d a l   p r i n t   o u t   f o r   t i m e  s t e p   16602                              ( at time 8.2996694E+00 )

 nodal point  x-rot      y-rot       z-rot       x-rot vel   y-rot vel   z-rot vel   x-rot acc   y-rot acc   z-rot acc
    22626  7.68131E-03 1.33433E-02-2.62036E-03 6.44223E-03 8.53754E-03-2.38433E-03 3.22567E-03 1.75131E-03-7.48875E-04



 n o d a l   p r i n t   o u t   f o r   t i m e  s t e p   16802                              ( at time 8.3996594E+00 )

 nodal point  x-disp     y-disp      z-disp      x-vel       y-vel       z-vel      x-accl      y-accl      z-accl      x-coor      y-coor      z-coor
    22626  2.38984E-01 1.76954E-01-2.45999E+01 1.97558E-01 1.32280E-01-1.67705E+00 6.94062E-02-2.56178E-02 7.12926E-01 4.82032E+01-2.18528E+01-1.72614E+01



 n o d a l   p r i n t   o u t   f o r   t i m e  s t e p   16802                              ( at time 8.3996594E+00 )

 nodal point  x-rot      y-rot       z-rot       x-rot vel   y-rot vel   z-rot vel   x-rot acc   y-rot acc   z-rot acc
    22626  8.34335E-03 1.42053E-02-2.86172E-03 6.80115E-03 8.70690E-03-2.45547E-03 3.58955E-03 1.69378E-03-7.11437E-04



 n o d a l   p r i n t   o u t   f o r   t i m e  s t e p   17002                              ( at time 8.4996494E+00 )

 nodal point  x-disp     y-disp      z-disp      x-vel       y-vel       z-vel      x-accl      y-accl      z-accl      x-coor      y-coor      z-coor
    22626  2.59096E-01 1.90056E-01-2.47640E+01 2.04298E-01 1.28768E-01-1.60551E+00 6.74110E-02-3.51183E-02 7.15470E-01 4.82233E+01-2.18397E+01-1.74255E+01



 n o d a l   p r i n t   o u t   f o r   t i m e  s t e p   17002                              ( at time 8.4996494E+00 )

 nodal point  x-rot      y-rot       z-rot       x-rot vel   y-rot vel   z-rot vel   x-rot acc   y-rot acc   z-rot acc
    22626  9.04173E-03 1.50831E-02-3.10941E-03 7.14821E-03 8.84096E-03-2.50675E-03 3.47099E-03 1.34072E-03-5.12892E-04



 n o d a l   p r i n t   o u t   f o r   t i m e  s t e p   17202                              ( at time 8.5996394E+00 )

 nodal point  x-disp     y-disp      z-disp      x-vel       y-vel       z-vel      x-accl      y-accl      z-accl      x-coor      y-coor      z-coor
    22626  2.79927E-01 2.02747E-01-2.49207E+01 2.11636E-01 1.24905E-01-1.53087E+00 7.33870E-02-3.86334E-02 7.46451E-01 4.82441E+01-2.18270E+01-1.75822E+01



 n o d a l   p r i n t   o u t   f o r   t i m e  s t e p   17202                              ( at time 8.5996394E+00 )

 nodal point  x-rot      y-rot       z-rot       x-rot vel   y-rot vel   z-rot vel   x-rot acc   y-rot acc   z-rot acc
    22626  9.77508E-03 1.59739E-02-3.36365E-03 7.53097E-03 8.96663E-03-2.58529E-03 3.82791E-03 1.25685E-03-7.85515E-04



 n o d a l   p r i n t   o u t   f o r   t i m e  s t e p   17402                              ( at time 8.6996293E+00 )

 nodal point  x-disp     y-disp      z-disp      x-vel       y-vel       z-vel      x-accl      y-accl      z-accl      x-coor      y-coor      z-coor
    22626  3.01459E-01 2.14925E-01-2.50699E+01 2.19112E-01 1.19727E-01-1.45337E+00 7.47636E-02-5.17915E-02 7.75031E-01 4.82656E+01-2.18149E+01-1.77314E+01



 n o d a l   p r i n t   o u t   f o r   t i m e  s t e p   17402                              ( at time 8.6996293E+00 )

 nodal point  x-rot      y-rot       z-rot       x-rot vel   y-rot vel   z-rot vel   x-rot acc   y-rot acc   z-rot acc
    22626  1.05478E-02 1.68768E-02-3.62391E-03 7.92896E-03 9.07409E-03-2.63812E-03 3.98029E-03 1.07468E-03-5.28297E-04



 n o d a l   p r i n t   o u t   f o r   t i m e  s t e p   17602                              ( at time 8.7996193E+00 )

 nodal point  x-disp     y-disp      z-disp      x-vel       y-vel       z-vel      x-accl      y-accl      z-accl      x-coor      y-coor      z-coor
    22626  3.23685E-01 2.26506E-01-2.52114E+01 2.26057E-01 1.12351E-01-1.37599E+00 6.94628E-02-7.37642E-02 7.73940E-01 4.82879E+01-2.18033E+01-1.78729E+01



 n o d a l   p r i n t   o u t   f o r   t i m e  s t e p   17602                              ( at time 8.7996193E+00 )

 nodal point  x-rot      y-rot       z-rot       x-rot vel   y-rot vel   z-rot vel   x-rot acc   y-rot acc   z-rot acc
    22626  1.13592E-02 1.77890E-02-3.89051E-03 8.31828E-03 9.17036E-03-2.70419E-03 3.89357E-03 9.62805E-04-6.60747E-04



 n o d a l   p r i n t   o u t   f o r   t i m e  s t e p   17802                              ( at time 8.8996093E+00 )

 nodal point  x-disp     y-disp      z-disp      x-vel       y-vel       z-vel      x-accl      y-accl      z-accl      x-coor      y-coor      z-coor
    22626  3.46614E-01 2.37364E-01-2.53450E+01 2.32875E-01 1.05272E-01-1.29657E+00 6.81831E-02-7.07944E-02 7.94207E-01 4.83108E+01-2.17924E+01-1.80065E+01



 n o d a l   p r i n t   o u t   f o r   t i m e  s t e p   17802                              ( at time 8.8996093E+00 )

 nodal point  x-rot      y-rot       z-rot       x-rot vel   y-rot vel   z-rot vel   x-rot acc   y-rot acc   z-rot acc
    22626  1.22098E-02 1.87116E-02-4.16382E-03 8.70182E-03 9.26844E-03-2.76780E-03 3.83584E-03 9.80856E-04-6.36160E-04



 n o d a l   p r i n t   o u t   f o r   t i m e  s t e p   18002                              ( at time 8.9995993E+00 )

 nodal point  x-disp     y-disp      z-disp      x-vel       y-vel       z-vel      x-accl      y-accl      z-accl      x-coor      y-coor      z-coor
    22626  3.70275E-01 2.47574E-01-2.54707E+01 2.39750E-01 9.95036E-02-1.21729E+00 6.87599E-02-5.76925E-02 7.92908E-01 4.83345E+01-2.17822E+01-1.81322E+01



 n o d a l   p r i n t   o u t   f o r   t i m e  s t e p   18002                              ( at time 8.9995993E+00 )

 nodal point  x-rot      y-rot       z-rot       x-rot vel   y-rot vel   z-rot vel   x-rot acc   y-rot acc   z-rot acc
    22626  1.31014E-02 1.96417E-02-4.44258E-03 9.13147E-03 9.34254E-03-2.83526E-03 4.29695E-03 7.41082E-04-6.74737E-04



 n o d a l   p r i n t   o u t   f o r   t i m e  s t e p   18202                              ( at time 9.0995893E+00 )

 nodal point  x-disp     y-disp      z-disp      x-vel       y-vel       z-vel      x-accl      y-accl      z-accl      x-coor      y-coor      z-coor
    22626  3.94652E-01 2.57162E-01-2.55884E+01 2.47910E-01 9.28961E-02-1.13849E+00 8.16107E-02-6.60819E-02 7.88074E-01 4.83588E+01-2.17726E+01-1.82499E+01



 n o d a l   p r i n t   o u t   f o r   t i m e  s t e p   18202                              ( at time 9.0995893E+00 )

 nodal point  x-rot      y-rot       z-rot       x-rot vel   y-rot vel   z-rot vel   x-rot acc   y-rot acc   z-rot acc
    22626  1.40343E-02 2.05805E-02-4.72717E-03 9.53164E-03 9.41806E-03-2.88724E-03 4.00208E-03 7.55342E-04-5.19800E-04



 n o d a l   p r i n t   o u t   f o r   t i m e  s t e p   18402                              ( at time 9.1995793E+00 )

 nodal point  x-disp     y-disp      z-disp      x-vel       y-vel       z-vel      x-accl      y-accl      z-accl      x-coor      y-coor      z-coor
    22626  4.19758E-01 2.66226E-01-2.56984E+01 2.54473E-01 8.75609E-02-1.06322E+00 6.56378E-02-5.33581E-02 7.52836E-01 4.83839E+01-2.17636E+01-1.83599E+01



 n o d a l   p r i n t   o u t   f o r   t i m e  s t e p   18402                              ( at time 9.1995793E+00 )

 nodal point  x-rot      y-rot       z-rot       x-rot vel   y-rot vel   z-rot vel   x-rot acc   y-rot acc   z-rot acc
    22626  1.50069E-02 2.15281E-02-5.01774E-03 9.91070E-03 9.51296E-03-2.92426E-03 3.79094E-03 9.49104E-04-3.70233E-04



 n o d a l   p r i n t   o u t   f o r   t i m e  s t e p   18602                              ( at time 9.2995693E+00 )

 nodal point  x-disp     y-disp      z-disp      x-vel       y-vel       z-vel      x-accl      y-accl      z-accl      x-coor      y-coor      z-coor
    22626  4.45444E-01 2.74648E-01-2.58009E+01 2.59848E-01 8.08799E-02-9.87429E-01 5.37548E-02-6.68165E-02 7.57948E-01 4.84096E+01-2.17551E+01-1.84624E+01



 n o d a l   p r i n t   o u t   f o r   t i m e  s t e p   18602                              ( at time 9.2995693E+00 )

 nodal point  x-rot      y-rot       z-rot       x-rot vel   y-rot vel   z-rot vel   x-rot acc   y-rot acc   z-rot acc
    22626  1.60179E-02 2.24857E-02-5.31231E-03 1.03008E-02 9.62190E-03-2.96430E-03 3.90162E-03 1.08943E-03-4.00502E-04



 n o d a l   p r i n t   o u t   f o r   t i m e  s t e p   18802                              ( at time 9.3995593E+00 )

 nodal point  x-disp     y-disp      z-disp      x-vel       y-vel       z-vel      x-accl      y-accl      z-accl      x-coor      y-coor      z-coor
    22626  4.71803E-01 2.82459E-01-2.58959E+01 2.65939E-01 7.67669E-02-9.11849E-01 6.09102E-02-4.11335E-02 7.55874E-01 4.84360E+01-2.17473E+01-1.85574E+01



 n o d a l   p r i n t   o u t   f o r   t i m e  s t e p   18802                              ( at time 9.3995593E+00 )

 nodal point  x-rot      y-rot       z-rot       x-rot vel   y-rot vel   z-rot vel   x-rot acc   y-rot acc   z-rot acc
    22626  1.70688E-02 2.34529E-02-5.61132E-03 1.07100E-02 9.71429E-03-3.02539E-03 4.09242E-03 9.24059E-04-6.10888E-04



 n o d a l   p r i n t   o u t   f o r   t i m e  s t e p   19002                              ( at time 9.4995493E+00 )

 nodal point  x-disp     y-disp      z-disp      x-vel       y-vel       z-vel      x-accl      y-accl      z-accl      x-coor      y-coor      z-coor
    22626  4.98777E-01 2.89977E-01-2.59835E+01 2.72893E-01 7.27806E-02-8.41190E-01 6.95537E-02-3.98677E-02 7.06661E-01 4.84630E+01-2.17398E+01-1.86450E+01



 n o d a l   p r i n t   o u t   f o r   t i m e  s t e p   19002                              ( at time 9.4995493E+00 )

 nodal point  x-rot      y-rot       z-rot       x-rot vel   y-rot vel   z-rot vel   x-rot acc   y-rot acc   z-rot acc
    22626  1.81602E-02 2.44278E-02-5.91616E-03 1.11127E-02 9.78874E-03-3.08089E-03 4.02672E-03 7.44565E-04-5.55099E-04



 n o d a l   p r i n t   o u t   f o r   t i m e  s t e p   19202                              ( at time 9.5995393E+00 )

 nodal point  x-disp     y-disp      z-disp      x-vel       y-vel       z-vel      x-accl      y-accl      z-accl      x-coor      y-coor      z-coor
    22626  5.26432E-01 2.96901E-01-2.60639E+01 2.79602E-01 6.83240E-02-7.68514E-01 6.70959E-02-4.45697E-02 7.26827E-01 4.84906E+01-2.17329E+01-1.87254E+01



 n o d a l   p r i n t   o u t   f o r   t i m e  s t e p   19202                              ( at time 9.5995393E+00 )

 nodal point  x-rot      y-rot       z-rot       x-rot vel   y-rot vel   z-rot vel   x-rot acc   y-rot acc   z-rot acc
    22626  1.92892E-02 2.54105E-02-6.22521E-03 1.15023E-02 9.86097E-03-3.12178E-03 3.89681E-03 7.22391E-04-4.08890E-04



 n o d a l   p r i n t   o u t   f o r   t i m e  s t e p   19402                              ( at time 9.6995293E+00 )

 nodal point  x-disp     y-disp      z-disp      x-vel       y-vel       z-vel      x-accl      y-accl      z-accl      x-coor      y-coor      z-coor
    22626  5.54817E-01 3.03551E-01-2.61373E+01 2.86614E-01 6.61809E-02-6.97170E-01 7.01230E-02-2.14329E-02 7.13508E-01 4.85190E+01-2.17262E+01-1.87988E+01



 n o d a l   p r i n t   o u t   f o r   t i m e  s t e p   19402                              ( at time 9.6995293E+00 )

 nodal point  x-rot      y-rot       z-rot       x-rot vel   y-rot vel   z-rot vel   x-rot acc   y-rot acc   z-rot acc
    22626  2.04584E-02 2.64008E-02-6.53821E-03 1.19125E-02 9.94993E-03-3.18562E-03 4.10270E-03 8.89643E-04-6.38537E-04



 n o d a l   p r i n t   o u t   f o r   t i m e  s t e p   19602                              ( at time 9.7995193E+00 )

 nodal point  x-disp     y-disp      z-disp      x-vel       y-vel       z-vel      x-accl      y-accl      z-accl      x-coor      y-coor      z-coor
    22626  5.83851E-01 3.09995E-01-2.62036E+01 2.94186E-01 6.14148E-02-6.31743E-01 7.57276E-02-4.76663E-02 6.54343E-01 4.85480E+01-2.17198E+01-1.88651E+01



 n o d a l   p r i n t   o u t   f o r   t i m e  s t e p   19602                              ( at time 9.7995193E+00 )

 nodal point  x-rot      y-rot       z-rot       x-rot vel   y-rot vel   z-rot vel   x-rot acc   y-rot acc   z-rot acc
    22626  2.16694E-02 2.73980E-02-6.85739E-03 1.22788E-02 1.00029E-02-3.18597E-03 3.66287E-03 5.29855E-04-3.45090E-06



 n o d a l   p r i n t   o u t   f o r   t i m e  s t e p   19802                              ( at time 9.8995093E+00 )

 nodal point  x-disp     y-disp      z-disp      x-vel       y-vel       z-vel      x-accl      y-accl      z-accl      x-coor      y-coor      z-coor
    22626  6.13599E-01 3.16189E-01-2.62632E+01 3.01079E-01 6.06146E-02-5.62305E-01 6.89338E-02-8.00311E-03 6.94442E-01 4.85778E+01-2.17136E+01-1.89247E+01



 n o d a l   p r i n t   o u t   f o r   t i m e  s t e p   19802                              ( at time 9.8995093E+00 )

 nodal point  x-rot      y-rot       z-rot       x-rot vel   y-rot vel   z-rot vel   x-rot acc   y-rot acc   z-rot acc
    22626  2.29154E-02 2.84022E-02-7.17974E-03 1.26507E-02 1.00814E-02-3.25602E-03 3.71932E-03 7.85100E-04-7.00600E-04



 n o d a l   p r i n t   o u t   f o r   t i m e  s t e p   20003                              ( at time 9.9999992E+00 )

 nodal point  x-disp     y-disp      z-disp      x-vel       y-vel       z-vel      x-accl      y-accl      z-accl      x-coor      y-coor      z-coor
[...]
    22626  2.52481E-01 1.51391E-01-6.99190E-02 1.78684E-02 7.94221E-03-6.04001E-03 4.42978E-05 4.61513E-05 3.22737E-04



 n o d a l   p r i n t   o u t   f o r   t i m e  s t e p   45205                              ( at time 2.2599738E+01 )

 nodal point  x-disp     y-disp      z-disp      x-vel       y-vel       z-vel      x-accl      y-accl      z-accl      x-coor      y-coor      z-coor
    22626  4.65051E+00 6.34016E-01-2.08685E+01 2.73698E-01-8.81648E-02 4.47138E-01 1.32296E-02-1.63266E-02-1.60083E-03 5.26147E+01-2.13958E+01-1.35300E+01



 n o d a l   p r i n t   o u t   f o r   t i m e  s t e p   45205                              ( at time 2.2599738E+01 )

 nodal point  x-rot      y-rot       z-rot       x-rot vel   y-rot vel   z-rot vel   x-rot acc   y-rot acc   z-rot acc
    22626  2.54267E-01 1.52186E-01-7.05214E-02 1.78616E-02 7.95725E-03-6.00318E-03-6.72104E-05 1.50348E-04 3.68316E-04



 n o d a l   p r i n t   o u t   f o r   t i m e  s t e p   45405                              ( at time 2.2699728E+01 )

 nodal point  x-disp     y-disp      z-disp      x-vel       y-vel       z-vel      x-accl      y-accl      z-accl      x-coor      y-coor      z-coor
    22626  4.67795E+00 6.25092E-01-2.08238E+01 2.75127E-01-9.06494E-02 4.47018E-01 1.42909E-02-2.48485E-02-1.20057E-03 5.26421E+01-2.14047E+01-1.34853E+01



 n o d a l   p r i n t   o u t   f o r   t i m e  s t e p   45405                              ( at time 2.2699728E+01 )

 nodal point  x-rot      y-rot       z-rot       x-rot vel   y-rot vel   z-rot vel   x-rot acc   y-rot acc   z-rot acc
    22626  2.56052E-01 1.52982E-01-7.11204E-02 1.78517E-02 7.96131E-03-5.97221E-03-9.92900E-05 4.06288E-05 3.09741E-04



 n o d a l   p r i n t   o u t   f o r   t i m e  s t e p   45605                              ( at time 2.2799718E+01 )

 nodal point  x-disp     y-disp      z-disp      x-vel       y-vel       z-vel      x-accl      y-accl      z-accl      x-coor      y-coor      z-coor
    22626  4.70554E+00 6.15903E-01-2.07791E+01 2.76676E-01-9.31748E-02 4.46752E-01 1.54962E-02-2.52561E-02-2.65682E-03 5.26697E+01-2.14139E+01-1.34406E+01



 n o d a l   p r i n t   o u t   f o r   t i m e  s t e p   45605                              ( at time 2.2799718E+01 )

 nodal point  x-rot      y-rot       z-rot       x-rot vel   y-rot vel   z-rot vel   x-rot acc   y-rot acc   z-rot acc
    22626  2.57837E-01 1.53778E-01-7.17157E-02 1.78579E-02 7.97677E-03-5.93238E-03 6.13984E-05 1.54632E-04 3.98349E-04



 n o d a l   p r i n t   o u t   f o r   t i m e  s t e p   45805                              ( at time 2.2899708E+01 )

 nodal point  x-disp     y-disp      z-disp      x-vel       y-vel       z-vel      x-accl      y-accl      z-accl      x-coor      y-coor      z-coor
    22626  4.73325E+00 6.06509E-01-2.07345E+01 2.77818E-01-9.47972E-02 4.46077E-01 1.14159E-02-1.62265E-02-6.74680E-03 5.26974E+01-2.14233E+01-1.33960E+01



 n o d a l   p r i n t   o u t   f o r   t i m e  s t e p   45805                              ( at time 2.2899708E+01 )

 nodal point  x-rot      y-rot       z-rot       x-rot vel   y-rot vel   z-rot vel   x-rot acc   y-rot acc   z-rot acc
    22626  2.59623E-01 1.54577E-01-7.23071E-02 1.78640E-02 7.98770E-03-5.89224E-03 6.16604E-05 1.09312E-04 4.01444E-04



 n o d a l   p r i n t   o u t   f o r   t i m e  s t e p   46005                              ( at time 2.2999698E+01 )

 nodal point  x-disp     y-disp      z-disp      x-vel       y-vel       z-vel      x-accl      y-accl      z-accl      x-coor      y-coor      z-coor
    22626  4.76112E+00 5.96892E-01-2.06899E+01 2.79556E-01-9.79483E-02 4.45590E-01 1.73844E-02-3.15139E-02-4.87283E-03 5.27253E+01-2.14329E+01-1.33514E+01



 n o d a l   p r i n t   o u t   f o r   t i m e  s t e p   46005                              ( at time 2.2999698E+01 )

 nodal point  x-rot      y-rot       z-rot       x-rot vel   y-rot vel   z-rot vel   x-rot acc   y-rot acc   z-rot acc
    22626  2.61409E-01 1.55376E-01-7.28945E-02 1.78659E-02 7.99771E-03-5.85561E-03 1.83860E-05 1.00154E-04 3.66323E-04



 n o d a l   p r i n t   o u t   f o r   t i m e  s t e p   46205                              ( at time 2.3099688E+01 )

 nodal point  x-disp     y-disp      z-disp      x-vel       y-vel       z-vel      x-accl      y-accl      z-accl      x-coor      y-coor      z-coor
    22626  4.78916E+00 5.86960E-01-2.06453E+01 2.81085E-01-1.00391E-01 4.45062E-01 1.52879E-02-2.44272E-02-5.27887E-03 5.27533E+01-2.14428E+01-1.33068E+01



 n o d a l   p r i n t   o u t   f o r   t i m e  s t e p   46205                              ( at time 2.3099688E+01 )

 nodal point  x-rot      y-rot       z-rot       x-rot vel   y-rot vel   z-rot vel   x-rot acc   y-rot acc   z-rot acc
    22626  2.63196E-01 1.56176E-01-7.34785E-02 1.78736E-02 8.00631E-03-5.81795E-03 7.73828E-05 8.59426E-05 3.76664E-04



 n o d a l   p r i n t   o u t   f o r   t i m e  s t e p   46405                              ( at time 2.3199678E+01 )

 nodal point  x-disp     y-disp      z-disp      x-vel       y-vel       z-vel      x-accl      y-accl      z-accl      x-coor      y-coor      z-coor
    22626  4.81732E+00 5.76833E-01-2.06009E+01 2.82338E-01-1.02370E-01 4.44223E-01 1.25357E-02-1.97922E-02-8.39757E-03 5.27815E+01-2.14530E+01-1.32624E+01



 n o d a l   p r i n t   o u t   f o r   t i m e  s t e p   46405                              ( at time 2.3199678E+01 )

 nodal point  x-rot      y-rot       z-rot       x-rot vel   y-rot vel   z-rot vel   x-rot acc   y-rot acc   z-rot acc
    22626  2.64984E-01 1.56977E-01-7.40583E-02 1.78834E-02 8.01978E-03-5.77565E-03 9.82822E-05 1.34700E-04 4.23050E-04



 n o d a l   p r i n t   o u t   f o r   t i m e  s t e p   46605                              ( at time 2.3299668E+01 )

 nodal point  x-disp     y-disp      z-disp      x-vel       y-vel       z-vel      x-accl      y-accl      z-accl      x-coor      y-coor      z-coor
    22626  4.84563E+00 5.66489E-01-2.05565E+01 2.83796E-01-1.04754E-01 4.43747E-01 1.45803E-02-2.38473E-02-4.75966E-03 5.28098E+01-2.14633E+01-1.32180E+01



 n o d a l   p r i n t   o u t   f o r   t i m e  s t e p   46605                              ( at time 2.3299668E+01 )

 nodal point  x-rot      y-rot       z-rot       x-rot vel   y-rot vel   z-rot vel   x-rot acc   y-rot acc   z-rot acc
    22626  2.66773E-01 1.57779E-01-7.46342E-02 1.78909E-02 8.02494E-03-5.73731E-03 7.47935E-05 5.16475E-05 3.83445E-04



 n o d a l   p r i n t   o u t   f o r   t i m e  s t e p   46805                              ( at time 2.3399658E+01 )

 nodal point  x-disp     y-disp      z-disp      x-vel       y-vel       z-vel      x-accl      y-accl      z-accl      x-coor      y-coor      z-coor
    22626  4.87408E+00 5.55899E-01-2.05122E+01 2.85603E-01-1.06945E-01 4.42562E-01 1.80711E-02-2.19119E-02-1.18493E-02 5.28383E+01-2.14739E+01-1.31737E+01



 n o d a l   p r i n t   o u t   f o r   t i m e  s t e p   46805                              ( at time 2.3399658E+01 )

 nodal point  x-rot      y-rot       z-rot       x-rot vel   y-rot vel   z-rot vel   x-rot acc   y-rot acc   z-rot acc
    22626  2.68563E-01 1.58581E-01-7.52063E-02 1.79167E-02 8.03091E-03-5.70233E-03 2.58503E-04 5.96660E-05 3.49823E-04



 n o d a l   p r i n t   o u t   f o r   t i m e  s t e p   47005                              ( at time 2.3499648E+01 )

 nodal point  x-disp     y-disp      z-disp      x-vel       y-vel       z-vel      x-accl      y-accl      z-accl      x-coor      y-coor      z-coor
    22626  4.90269E+00 5.45131E-01-2.04680E+01 2.86549E-01-1.08442E-01 4.41306E-01 9.45834E-03-1.49690E-02-1.25646E-02 5.28669E+01-2.14847E+01-1.31295E+01



 n o d a l   p r i n t   o u t   f o r   t i m e  s t e p   47005                              ( at time 2.3499648E+01 )

 nodal point  x-rot      y-rot       z-rot       x-rot vel   y-rot vel   z-rot vel   x-rot acc   y-rot acc   z-rot acc
    22626  2.70355E-01 1.59385E-01-7.57750E-02 1.79269E-02 8.03845E-03-5.66710E-03 1.01225E-04 7.54627E-05 3.52258E-04



 n o d a l   p r i n t   o u t   f o r   t i m e  s t e p   47205                              ( at time 2.3599638E+01 )

 nodal point  x-disp     y-disp      z-disp      x-vel       y-vel       z-vel      x-accl      y-accl      z-accl      x-coor      y-coor      z-coor
    22626  4.93140E+00 5.34216E-01-2.04239E+01 2.88046E-01-1.09917E-01 4.40231E-01 1.49749E-02-1.47533E-02-1.07449E-02 5.28956E+01-2.14956E+01-1.30854E+01



 n o d a l   p r i n t   o u t   f o r   t i m e  s t e p   47205                              ( at time 2.3599638E+01 )

 nodal point  x-rot      y-rot       z-rot       x-rot vel   y-rot vel   z-rot vel   x-rot acc   y-rot acc   z-rot acc
    22626  2.72148E-01 1.60189E-01-7.63397E-02 1.79462E-02 8.04321E-03-5.62923E-03 1.93364E-04 4.76331E-05 3.78783E-04



 n o d a l   p r i n t   o u t   f o r   t i m e  s t e p   47405                              ( at time 2.3699628E+01 )

 nodal point  x-disp     y-disp      z-disp      x-vel       y-vel       z-vel      x-accl      y-accl      z-accl      x-coor      y-coor      z-coor
    22626  4.96027E+00 5.23128E-01-2.03799E+01 2.89174E-01-1.11524E-01 4.39007E-01 1.12812E-02-1.60722E-02-1.22457E-02 5.29244E+01-2.15067E+01-1.30414E+01



 n o d a l   p r i n t   o u t   f o r   t i m e  s t e p   47405                              ( at time 2.3699628E+01 )

 nodal point  x-rot      y-rot       z-rot       x-rot vel   y-rot vel   z-rot vel   x-rot acc   y-rot acc   z-rot acc
    22626  2.73943E-01 1.60993E-01-7.69008E-02 1.79614E-02 8.04827E-03-5.59438E-03 1.52453E-04 5.05848E-05 3.48528E-04



 n o d a l   p r i n t   o u t   f o r   t i m e  s t e p   47605                              ( at time 2.3799618E+01 )

 nodal point  x-disp     y-disp      z-disp      x-vel       y-vel       z-vel      x-accl      y-accl      z-accl      x-coor      y-coor      z-coor
    22626  4.98925E+00 5.11969E-01-2.03361E+01 2.90255E-01-1.12020E-01 4.37357E-01 1.08072E-02-4.95772E-03-1.64983E-02 5.29534E+01-2.15178E+01-1.29976E+01



 n o d a l   p r i n t   o u t   f o r   t i m e  s t e p   47605                              ( at time 2.3799618E+01 )

 nodal point  x-rot      y-rot       z-rot       x-rot vel   y-rot vel   z-rot vel   x-rot acc   y-rot acc   z-rot acc
    22626  2.75740E-01 1.61798E-01-7.74588E-02 1.79851E-02 8.05112E-03-5.56379E-03 2.36098E-04 2.84271E-05 3.05922E-04



 n o d a l   p r i n t   o u t   f o r   t i m e  s t e p   47805                              ( at time 2.3899608E+01 )

 nodal point  x-disp     y-disp      z-disp      x-vel       y-vel       z-vel      x-accl      y-accl      z-accl      x-coor      y-coor      z-coor
    22626  5.01832E+00 5.00738E-01-2.02925E+01 2.91322E-01-1.12652E-01 4.35541E-01 1.06741E-02-6.31740E-03-1.81635E-02 5.29825E+01-2.15291E+01-1.29540E+01



 n o d a l   p r i n t   o u t   f o r   t i m e  s t e p   47805                              ( at time 2.3899608E+01 )

 nodal point  x-rot      y-rot       z-rot       x-rot vel   y-rot vel   z-rot vel   x-rot acc   y-rot acc   z-rot acc
    22626  2.77540E-01 1.62603E-01-7.80135E-02 1.80074E-02 8.05474E-03-5.52883E-03 2.23482E-04 3.62783E-05 3.49678E-04



 n o d a l   p r i n t   o u t   f o r   t i m e  s t e p   48005                              ( at time 2.3999598E+01 )

 nodal point  x-disp     y-disp      z-disp      x-vel       y-vel       z-vel      x-accl      y-accl      z-accl      x-coor      y-coor      z-coor
    22626  5.04750E+00 4.89458E-01-2.02490E+01 2.92248E-01-1.12788E-01 4.33659E-01 9.25822E-03-1.36607E-03-1.88175E-02 5.30117E+01-2.15403E+01-1.29105E+01



 n o d a l   p r i n t   o u t   f o r   t i m e  s t e p   48005                              ( at time 2.3999598E+01 )

 nodal point  x-rot      y-rot       z-rot       x-rot vel   y-rot vel   z-rot vel   x-rot acc   y-rot acc   z-rot acc
    22626  2.79341E-01 1.63409E-01-7.85651E-02 1.80310E-02 8.05631E-03-5.50620E-03 2.36172E-04 1.56852E-05 2.26262E-04



 n o d a l   p r i n t   o u t   f o r   t i m e  s t e p   48205                              ( at time 2.4099588E+01 )

 nodal point  x-disp     y-disp      z-disp      x-vel       y-vel       z-vel      x-accl      y-accl      z-accl      x-coor      y-coor      z-coor
    22626  5.07676E+00 4.78167E-01-2.02058E+01 2.93028E-01-1.12894E-01 4.31700E-01 7.79939E-03-1.06061E-03-1.95906E-02 5.30409E+01-2.15516E+01-1.28673E+01



 n o d a l   p r i n t   o u t   f o r   t i m e  s t e p   48205                              ( at time 2.4099588E+01 )

 nodal point  x-rot      y-rot       z-rot       x-rot vel   y-rot vel   z-rot vel   x-rot acc   y-rot acc   z-rot acc
    22626  2.81146E-01 1.64214E-01-7.91147E-02 1.80571E-02 8.05370E-03-5.48641E-03 2.60794E-04-2.61539E-05 1.97961E-04



 n o d a l   p r i n t   o u t   f o r   t i m e  s t e p   48405                              ( at time 2.4199578E+01 )

 nodal point  x-disp     y-disp      z-disp      x-vel       y-vel       z-vel      x-accl      y-accl      z-accl      x-coor      y-coor      z-coor
    22626  5.10608E+00 4.66916E-01-2.01627E+01 2.93600E-01-1.11955E-01 4.29507E-01 5.72715E-03 9.39481E-03-2.19405E-02 5.30703E+01-2.15629E+01-1.28242E+01



 n o d a l   p r i n t   o u t   f o r   t i m e  s t e p   48405                              ( at time 2.4199578E+01 )

 nodal point  x-rot      y-rot       z-rot       x-rot vel   y-rot vel   z-rot vel   x-rot acc   y-rot acc   z-rot acc
    22626  2.82952E-01 1.65020E-01-7.96613E-02 1.80800E-02 8.05379E-03-5.45179E-03 2.29261E-04 9.59368E-07 3.46262E-04



 n o d a l   p r i n t   o u t   f o r   t i m e  s t e p   48605                              ( at time 2.4299568E+01 )

 nodal point  x-disp     y-disp      z-disp      x-vel       y-vel       z-vel      x-accl      y-accl      z-accl      x-coor      y-coor      z-coor
    22626  5.13546E+00 4.55763E-01-2.01199E+01 2.94092E-01-1.11258E-01 4.27466E-01 4.92350E-03 6.97036E-03-2.04039E-02 5.30996E+01-2.15740E+01-1.27814E+01



 n o d a l   p r i n t   o u t   f o r   t i m e  s t e p   48605                              ( at time 2.4299568E+01 )

 nodal point  x-rot      y-rot       z-rot       x-rot vel   y-rot vel   z-rot vel   x-rot acc   y-rot acc   z-rot acc
    22626  2.84761E-01 1.65825E-01-8.02056E-02 1.81025E-02 8.05622E-03-5.43862E-03 2.24786E-04 2.43097E-05 1.31664E-04



 n o d a l   p r i n t   o u t   f o r   t i m e  s t e p   48805                              ( at time 2.4399558E+01 )

 nodal point  x-disp     y-disp      z-disp      x-vel       y-vel       z-vel      x-accl      y-accl      z-accl      x-coor      y-coor      z-coor
    22626  5.16487E+00 4.44675E-01-2.00772E+01 2.94139E-01-1.10321E-01 4.24857E-01 4.68535E-04 9.36736E-03-2.60928E-02 5.31291E+01-2.15851E+01-1.27387E+01



 n o d a l   p r i n t   o u t   f o r   t i m e  s t e p   48805                              ( at time 2.4399558E+01 )

 nodal point  x-rot      y-rot       z-rot       x-rot vel   y-rot vel   z-rot vel   x-rot acc   y-rot acc   z-rot acc
    22626  2.86573E-01 1.66630E-01-8.07486E-02 1.81318E-02 8.04982E-03-5.42617E-03 2.93393E-04-6.40529E-05 1.24525E-04



 n o d a l   p r i n t   o u t   f o r   t i m e  s t e p   49006                              ( at time 2.4500048E+01 )

 nodal point  x-disp     y-disp      z-disp      x-vel       y-vel       z-vel      x-accl      y-accl      z-accl      x-coor      y-coor      z-coor
    22626  5.19448E+00 4.33670E-01-2.00347E+01 2.94664E-01-1.08515E-01 4.22585E-01 5.22563E-03 1.79763E-02-2.26102E-02 5.31587E+01-2.15961E+01-1.26962E+01



 n o d a l   p r i n t   o u t   f o r   t i m e  s t e p   49006                              ( at time 2.4500048E+01 )

 nodal point  x-rot      y-rot       z-rot       x-rot vel   y-rot vel   z-rot vel   x-rot acc   y-rot acc   z-rot acc
    22626  2.88396E-01 1.67439E-01-8.12924E-02 1.81513E-02 8.05087E-03-5.40437E-03 1.93292E-04 1.04264E-05 2.16925E-04



 n o d a l   p r i n t   o u t   f o r   t i m e  s t e p   49206                              ( at time 2.4600038E+01 )

 nodal point  x-disp     y-disp      z-disp      x-vel       y-vel       z-vel      x-accl      y-accl      z-accl      x-coor      y-coor      z-coor
    22626  5.22394E+00 4.22892E-01-1.99925E+01 2.94571E-01-1.07002E-01 4.20572E-01-9.38561E-04 1.51318E-02-2.01399E-02 5.31881E+01-2.16069E+01-1.26540E+01



 n o d a l   p r i n t   o u t   f o r   t i m e  s t e p   49206                              ( at time 2.4600038E+01 )

 nodal point  x-rot      y-rot       z-rot       x-rot vel   y-rot vel   z-rot vel   x-rot acc   y-rot acc   z-rot acc
    22626  2.90212E-01 1.68244E-01-8.18321E-02 1.81763E-02 8.04979E-03-5.39185E-03 2.50977E-04-1.07112E-05 1.25200E-04



 n o d a l   p r i n t   o u t   f o r   t i m e  s t e p   49406                              ( at time 2.4700028E+01 )

 nodal point  x-disp     y-disp      z-disp      x-vel       y-vel       z-vel      x-accl      y-accl      z-accl      x-coor      y-coor      z-coor
    22626  5.25338E+00 4.12284E-01-1.99506E+01 2.94613E-01-1.05303E-01 4.18334E-01 4.19365E-04 1.69948E-02-2.23769E-02 5.32176E+01-2.16175E+01-1.26121E+01



 n o d a l   p r i n t   o u t   f o r   t i m e  s t e p   49406                              ( at time 2.4700028E+01 )

 nodal point  x-rot      y-rot       z-rot       x-rot vel   y-rot vel   z-rot vel   x-rot acc   y-rot acc   z-rot acc
    22626  2.92030E-01 1.69049E-01-8.23712E-02 1.81951E-02 8.04270E-03-5.38179E-03 1.87291E-04-7.09374E-05 1.00678E-04



 n o d a l   p r i n t   o u t   f o r   t i m e  s t e p   49606                              ( at time 2.4800018E+01 )

 nodal point  x-disp     y-disp      z-disp      x-vel       y-vel       z-vel      x-accl      y-accl      z-accl      x-coor      y-coor      z-coor
    22626  5.28284E+00 4.01879E-01-1.99089E+01 2.94296E-01-1.03026E-01 4.15687E-01-3.16828E-03 2.27716E-02-2.64782E-02 5.32470E+01-2.16279E+01-1.25704E+01



 n o d a l   p r i n t   o u t   f o r   t i m e  s t e p   49606                              ( at time 2.4800018E+01 )

 nodal point  x-rot      y-rot       z-rot       x-rot vel   y-rot vel   z-rot vel   x-rot acc   y-rot acc   z-rot acc
    22626  2.93851E-01 1.69853E-01-8.29092E-02 1.82171E-02 8.03599E-03-5.38037E-03 2.20148E-04-6.71079E-05 1.41621E-05



 n o d a l   p r i n t   o u t   f o r   t i m e  s t e p   49806                              ( at time 2.4900008E+01 )

 nodal point  x-disp     y-disp      z-disp      x-vel       y-vel       z-vel      x-accl      y-accl      z-accl      x-coor      y-coor      z-coor
    22626  5.31224E+00 3.91655E-01-1.98674E+01 2.93664E-01-1.01105E-01 4.13553E-01-6.31730E-03 1.92106E-02-2.13352E-02 5.32764E+01-2.16381E+01-1.25289E+01



 n o d a l   p r i n t   o u t   f o r   t i m e  s t e p   49806                              ( at time 2.4900008E+01 )

 nodal point  x-rot      y-rot       z-rot       x-rot vel   y-rot vel   z-rot vel   x-rot acc   y-rot acc   z-rot acc
    22626  2.95674E-01 1.70656E-01-8.34472E-02 1.82398E-02 8.03538E-03-5.38278E-03 2.26690E-04-6.10084E-06-2.40913E-05



 n o d a l   p r i n t   o u t   f o r   t i m e  s t e p   50006                              ( at time 2.4999998E+01 )

 nodal point  x-disp     y-disp      z-disp      x-vel       y-vel       z-vel      x-accl      y-accl      z-accl      x-coor      y-coor      z-coor
    22626  5.34160E+00 3.81661E-01-1.98262E+01 2.93479E-01-9.89647E-02 4.11038E-01-1.85089E-03 2.14030E-02-2.51593E-02 5.33058E+01-2.16481E+01-1.24877E+01



 n o d a l   p r i n t   o u t   f o r   t i m e  s t e p   50006                              ( at time 2.4999998E+01 )

 nodal point  x-rot      y-rot       z-rot       x-rot vel   y-rot vel   z-rot vel   x-rot acc   y-rot acc   z-rot acc
    22626  2.97498E-01 1.71459E-01-8.39849E-02 1.82679E-02 8.02536E-03-5.37529E-03 2.81881E-04-1.00238E-04 7.48666E-05
