 LSTC 50th% Full_FE H-III Dummy (Beta Version, February 17, 2019)        
                    ls-dyna smp s R16 R16.0_619_d222963 date 03/18/2025

{BEGIN LEGEND}
 Entity #        Title
    22626                                                                                     
{END LEGEND}




 n o d a l   p r i n t   o u t   f o r   t i m e  s t e p       1                              ( at time 0.0000000E+00 )

 nodal point  x-disp     y-disp      z-disp      x-vel       y-vel       z-vel      x-accl      y-accl      z-accl      x-coor      y-coor      z-coor
    22626  0.00000E+00 0.00000E+00 0.00000E+00 0.00000E+00 0.00000E+00-3.12000E+00 0.00000E+00 0.00000E+00 0.00000E+00 4.79642E+01-2.20298E+01 7.33850E+00



 n o d a l   p r i n t   o u t   f o r   t i m e  s t e p       1                              ( at time 0.0000000E+00 )

 nodal point  x-rot      y-rot       z-rot       x-rot vel   y-rot vel   z-rot vel   x-rot acc   y-rot acc   z-rot acc
    22626  0.00000E+00 0.00000E+00 0.00000E+00 0.00000E+00 0.00000E+00 0.00000E+00 0.00000E+00 0.00000E+00 0.00000E+00



 n o d a l   p r i n t   o u t   f o r   t i m e  s t e p     201                              ( at time 9.9989993E-02 )

 nodal point  x-disp     y-disp      z-disp      x-vel       y-vel       z-vel      x-accl      y-accl      z-accl      x-coor      y-coor      z-coor
    22626  8.34369E-07-4.04490E-06-3.12016E-01 4.76643E-05-4.96442E-04-3.12074E+00 4.76691E-04-4.96491E-03-7.42510E-03 4.79642E+01-2.20298E+01 7.02648E+00



 n o d a l   p r i n t   o u t   f o r   t i m e  s t e p     201                              ( at time 9.9989993E-02 )

 nodal point  x-rot      y-rot       z-rot       x-rot vel   y-rot vel   z-rot vel   x-rot acc   y-rot acc   z-rot acc
    22626  9.60691E-09 3.04098E-08 5.27089E-08 1.30718E-06 2.72277E-06 5.21202E-06 1.30732E-05 2.72305E-05 5.21254E-05



 n o d a l   p r i n t   o u t   f o r   t i m e  s t e p     401                              ( at time 1.9997999E-01 )

 nodal point  x-disp     y-disp      z-disp      x-vel       y-vel       z-vel      x-accl      y-accl      z-accl      x-coor      y-coor      z-coor
    22626 -5.12813E-05-5.21571E-04-6.23853E-01-1.09702E-03-1.11140E-02-3.11558E+00-1.14480E-02-1.06187E-01 5.16180E-02 4.79641E+01-2.20303E+01 6.71465E+00



 n o d a l   p r i n t   o u t   f o r   t i m e  s t e p     401                              ( at time 1.9997999E-01 )

 nodal point  x-rot      y-rot       z-rot       x-rot vel   y-rot vel   z-rot vel   x-rot acc   y-rot acc   z-rot acc
    22626  4.60231E-07 1.32974E-06 2.50227E-06 2.66370E-06 1.90533E-05 3.49710E-05 1.35666E-05 1.63321E-04 2.97619E-04



 n o d a l   p r i n t   o u t   f o r   t i m e  s t e p     601                              ( at time 2.9996998E-01 )

 nodal point  x-disp     y-disp      z-disp      x-vel       y-vel       z-vel      x-accl      y-accl      z-accl      x-coor      y-coor      z-coor
    22626 -2.45570E-05-1.97630E-03-9.35238E-01 1.66082E-03-1.60431E-02-3.11415E+00 2.75812E-02-4.92957E-02 1.43304E-02 4.79642E+01-2.20318E+01 6.40326E+00



 n o d a l   p r i n t   o u t   f o r   t i m e  s t e p     601                              ( at time 2.9996998E-01 )

 nodal point  x-rot      y-rot       z-rot       x-rot vel   y-rot vel   z-rot vel   x-rot acc   y-rot acc   z-rot acc
    22626  6.75015E-07 2.41120E-06 4.82730E-06 8.26186E-06 5.38966E-06 1.47224E-05 5.59871E-05-1.36650E-04-2.02506E-04



 n o d a l   p r i n t   o u t   f o r   t i m e  s t e p     801                              ( at time 3.9995997E-01 )

 nodal point  x-disp     y-disp      z-disp      x-vel       y-vel       z-vel      x-accl      y-accl      z-accl      x-coor      y-coor      z-coor
    22626  5.94654E-05-3.57405E-03-1.24663E+00 1.93716E-04-1.73889E-02-3.11353E+00-1.46725E-02-1.34591E-02 6.15897E-03 4.79642E+01-2.20334E+01 6.09187E+00



 n o d a l   p r i n t   o u t   f o r   t i m e  s t e p     801                              ( at time 3.9995997E-01 )

 nodal point  x-rot      y-rot       z-rot       x-rot vel   y-rot vel   z-rot vel   x-rot acc   y-rot acc   z-rot acc
    22626  1.58208E-06 3.68143E-06 6.68110E-06 6.25742E-06 2.41742E-05 3.81810E-05-2.00463E-05 1.87864E-04 2.34609E-04



 n o d a l   p r i n t   o u t   f o r   t i m e  s t e p    1001                              ( at time 4.9994997E-01 )

 nodal point  x-disp     y-disp      z-disp      x-vel       y-vel       z-vel      x-accl      y-accl      z-accl      x-coor      y-coor      z-coor
    22626  7.27805E-05-5.63145E-03-1.55782E+00 8.90241E-04-2.38473E-02-3.11085E+00 6.96595E-03-6.45903E-02 2.67962E-02 4.79643E+01-2.20354E+01 5.78068E+00



 n o d a l   p r i n t   o u t   f o r   t i m e  s t e p    1001                              ( at time 4.9994997E-01 )

 nodal point  x-rot      y-rot       z-rot       x-rot vel   y-rot vel   z-rot vel   x-rot acc   y-rot acc   z-rot acc
    22626  1.49428E-06 6.64802E-06 1.18371E-05-4.82422E-06 4.38007E-05 7.19945E-05-1.10828E-04 1.96285E-04 3.38169E-04



 n o d a l   p r i n t   o u t   f o r   t i m e  s t e p    1201                              ( at time 5.9993996E-01 )

 nodal point  x-disp     y-disp      z-disp      x-vel       y-vel       z-vel      x-accl      y-accl      z-accl      x-coor      y-coor      z-coor
    22626  5.29527E-05-8.13741E-03-1.86888E+00-5.65687E-04-2.61242E-02-3.11084E+00-1.45607E-02-2.27711E-02 1.54988E-04 4.79642E+01-2.20379E+01 5.46962E+00



 n o d a l   p r i n t   o u t   f o r   t i m e  s t e p    1201                              ( at time 5.9993996E-01 )

 nodal point  x-rot      y-rot       z-rot       x-rot vel   y-rot vel   z-rot vel   x-rot acc   y-rot acc   z-rot acc
    22626  1.26519E-06 9.87443E-06 1.77365E-05-2.17929E-06 2.63471E-05 5.30045E-05 2.64519E-05-1.74553E-04-1.89919E-04



 n o d a l   p r i n t   o u t   f o r   t i m e  s t e p    1401                              ( at time 6.9992995E-01 )

 nodal point  x-disp     y-disp      z-disp      x-vel       y-vel       z-vel      x-accl      y-accl      z-accl      x-coor      y-coor      z-coor
    22626  1.96946E-05-1.10207E-02-2.17976E+00 7.14806E-04-3.22439E-02-3.10770E+00 1.28062E-02-6.12037E-02 3.14076E-02 4.79642E+01-2.20408E+01 5.15874E+00



 n o d a l   p r i n t   o u t   f o r   t i m e  s t e p    1401                              ( at time 6.9992995E-01 )

 nodal point  x-rot      y-rot       z-rot       x-rot vel   y-rot vel   z-rot vel   x-rot acc   y-rot acc   z-rot acc
    22626  1.10221E-06 1.30699E-05 2.27051E-05-2.39323E-06 3.78128E-05 5.93384E-05-2.13966E-06 1.14668E-04 6.33451E-05



 n o d a l   p r i n t   o u t   f o r   t i m e  s t e p    1601                              ( at time 7.9991994E-01 )

 nodal point  x-disp     y-disp      z-disp      x-vel       y-vel       z-vel      x-accl      y-accl      z-accl      x-coor      y-coor      z-coor
    22626  1.33047E-04-1.45710E-02-2.49038E+00 1.37168E-03-3.68172E-02-3.10600E+00 6.56935E-03-4.57369E-02 1.69795E-02 4.79643E+01-2.20444E+01 4.84812E+00



 n o d a l   p r i n t   o u t   f o r   t i m e  s t e p    1601                              ( at time 7.9991994E-01 )

 nodal point  x-rot      y-rot       z-rot       x-rot vel   y-rot vel   z-rot vel   x-rot acc   y-rot acc   z-rot acc
    22626  1.00708E-06 1.72052E-05 2.96644E-05 3.03042E-06 4.87451E-05 7.63575E-05 5.42419E-05 1.09334E-04 1.70209E-04



 n o d a l   p r i n t   o u t   f o r   t i m e  s t e p    1801                              ( at time 8.9990994E-01 )

 nodal point  x-disp     y-disp      z-disp      x-vel       y-vel       z-vel      x-accl      y-accl      z-accl      x-coor      y-coor      z-coor
    22626  2.07409E-04-1.82140E-02-2.80104E+00-5.06437E-04-3.64316E-02-3.10742E+00-1.87830E-02 3.85614E-03-1.41993E-02 4.79644E+01-2.20480E+01 4.53746E+00



 n o d a l   p r i n t   o u t   f o r   t i m e  s t e p    1801                              ( at time 8.9990994E-01 )

 nodal point  x-rot      y-rot       z-rot       x-rot vel   y-rot vel   z-rot vel   x-rot acc   y-rot acc   z-rot acc
    22626  1.02497E-06 2.13202E-05 3.66567E-05-1.93665E-06 3.79924E-05 6.84174E-05-4.96757E-05-1.07537E-04-7.94097E-05



 n o d a l   p r i n t   o u t   f o r   t i m e  s t e p    2001                              ( at time 9.9989993E-01 )

 nodal point  x-disp     y-disp      z-disp      x-vel       y-vel       z-vel      x-accl      y-accl      z-accl      x-coor      y-coor      z-coor
    22626  1.09824E-04-2.19275E-02-3.11175E+00-8.15965E-04-3.83999E-02-3.10755E+00-3.09558E-03-1.96848E-02-1.33051E-03 4.79643E+01-2.20517E+01 4.22675E+00



 n o d a l   p r i n t   o u t   f o r   t i m e  s t e p    2001                              ( at time 9.9989993E-01 )

 nodal point  x-rot      y-rot       z-rot       x-rot vel   y-rot vel   z-rot vel   x-rot acc   y-rot acc   z-rot acc
    22626  8.56869E-07 2.55337E-05 4.38508E-05-8.70994E-07 4.62332E-05 8.60007E-05 1.06576E-05 8.24158E-05 1.75851E-04



 n o d a l   p r i n t   o u t   f o r   t i m e  s t e p    2201                              ( at time 1.0998899E+00 )

 nodal point  x-disp     y-disp      z-disp      x-vel       y-vel       z-vel      x-accl      y-accl      z-accl      x-coor      y-coor      z-coor
    22626  9.18817E-05-2.58760E-02-3.42246E+00-2.18379E-04-4.02573E-02-3.10712E+00 5.97646E-03-1.85756E-02 4.31819E-03 4.79643E+01-2.20557E+01 3.91605E+00



 n o d a l   p r i n t   o u t   f o r   t i m e  s t e p    2201                              ( at time 1.0998899E+00 )

 nodal point  x-rot      y-rot       z-rot       x-rot vel   y-rot vel   z-rot vel   x-rot acc   y-rot acc   z-rot acc
    22626  9.33701E-07 3.03118E-05 5.24792E-05 5.30577E-06 4.64496E-05 7.50452E-05 6.17738E-05 2.16456E-06-1.09566E-04



 n o d a l   p r i n t   o u t   f o r   t i m e  s t e p    2401                              ( at time 1.1998799E+00 )

 nodal point  x-disp     y-disp      z-disp      x-vel       y-vel       z-vel      x-accl      y-accl      z-accl      x-coor      y-coor      z-coor
    22626  1.34346E-04-2.98901E-02-3.73320E+00 7.37796E-04-3.98026E-02-3.10850E+00 9.56271E-03 4.54743E-03-1.37724E-02 4.79643E+01-2.20597E+01 3.60531E+00



 n o d a l   p r i n t   o u t   f o r   t i m e  s t e p    2401                              ( at time 1.1998799E+00 )

 nodal point  x-rot      y-rot       z-rot       x-rot vel   y-rot vel   z-rot vel   x-rot acc   y-rot acc   z-rot acc
    22626  1.33680E-06 3.44659E-05 5.93282E-05 5.08418E-06 3.99665E-05 6.56798E-05-2.21607E-06-6.48376E-05-9.36633E-05



 n o d a l   p r i n t   o u t   f o r   t i m e  s t e p    2601                              ( at time 1.2998699E+00 )

 nodal point  x-disp     y-disp      z-disp      x-vel       y-vel       z-vel      x-accl      y-accl      z-accl      x-coor      y-coor      z-coor
    22626  1.46233E-04-3.37303E-02-4.04413E+00-4.24418E-04-3.65908E-02-3.11132E+00-1.16233E-02 3.21208E-02-2.82745E-02 4.79643E+01-2.20635E+01 3.29437E+00



 n o d a l   p r i n t   o u t   f o r   t i m e  s t e p    2601                              ( at time 1.2998699E+00 )

 nodal point  x-rot      y-rot       z-rot       x-rot vel   y-rot vel   z-rot vel   x-rot acc   y-rot acc   z-rot acc
    22626  1.63930E-06 3.85446E-05 6.61343E-05-2.56482E-06 4.54482E-05 7.97913E-05-7.64977E-05 5.48224E-05 1.41129E-04



 n o d a l   p r i n t   o u t   f o r   t i m e  s t e p    2801                              ( at time 1.3998599E+00 )

 nodal point  x-disp     y-disp      z-disp      x-vel       y-vel       z-vel      x-accl      y-accl      z-accl      x-coor      y-coor      z-coor
    22626  3.22225E-05-3.71240E-02-4.35543E+00-1.31133E-03-3.14372E-02-3.11511E+00-8.87004E-03 5.15407E-02-3.78432E-02 4.79642E+01-2.20669E+01 2.98307E+00



 n o d a l   p r i n t   o u t   f o r   t i m e  s t e p    2801                              ( at time 1.3998599E+00 )

 nodal point  x-rot      y-rot       z-rot       x-rot vel   y-rot vel   z-rot vel   x-rot acc   y-rot acc   z-rot acc
    22626  1.20427E-06 4.29493E-05 7.39880E-05-4.47636E-06 4.45222E-05 7.33115E-05-1.91173E-05-9.26111E-06-6.48042E-05



 n o d a l   p r i n t   o u t   f o r   t i m e  s t e p    3001                              ( at time 1.4998499E+00 )

 nodal point  x-disp     y-disp      z-disp      x-vel       y-vel       z-vel      x-accl      y-accl      z-accl      x-coor      y-coor      z-coor
    22626 -7.75136E-05-4.01686E-02-4.66702E+00-4.96168E-04-2.97709E-02-3.11713E+00 8.15247E-03 1.66649E-02-2.02247E-02 4.79641E+01-2.20700E+01 2.67148E+00



 n o d a l   p r i n t   o u t   f o r   t i m e  s t e p    3001                              ( at time 1.4998499E+00 )

 nodal point  x-rot      y-rot       z-rot       x-rot vel   y-rot vel   z-rot vel   x-rot acc   y-rot acc   z-rot acc
    22626  8.27719E-07 4.68526E-05 8.05202E-05-1.64414E-06 3.19849E-05 5.72256E-05 2.83250E-05-1.25385E-04-1.60875E-04



 n o d a l   p r i n t   o u t   f o r   t i m e  s t e p    3201                              ( at time 1.5998399E+00 )

 nodal point  x-disp     y-disp      z-disp      x-vel       y-vel       z-vel      x-accl      y-accl      z-accl      x-coor      y-coor      z-coor
    22626 -1.24240E-04-4.30591E-02-4.97879E+00-6.93961E-04-2.75108E-02-3.11940E+00-1.97813E-03 2.26031E-02-2.27116E-02 4.79641E+01-2.20728E+01 2.35971E+00



 n o d a l   p r i n t   o u t   f o r   t i m e  s t e p    3201                              ( at time 1.5998399E+00 )

 nodal point  x-rot      y-rot       z-rot       x-rot vel   y-rot vel   z-rot vel   x-rot acc   y-rot acc   z-rot acc
    22626  5.14908E-07 4.99125E-05 8.53950E-05-1.52708E-06 3.26487E-05 4.79072E-05 1.17077E-06 6.63914E-06-9.31936E-05



 n o d a l   p r i n t   o u t   f o r   t i m e  s t e p    3401                              ( at time 1.6998299E+00 )

 nodal point  x-disp     y-disp      z-disp      x-vel       y-vel       z-vel      x-accl      y-accl      z-accl      x-coor      y-coor      z-coor
    22626 -2.10928E-04-4.55735E-02-5.29089E+00-1.12668E-03-2.24375E-02-3.12325E+00-4.32762E-03 5.07389E-02-3.84846E-02 4.79640E+01-2.20754E+01 2.04762E+00



 n o d a l   p r i n t   o u t   f o r   t i m e  s t e p    3401                              ( at time 1.6998299E+00 )

 nodal point  x-rot      y-rot       z-rot       x-rot vel   y-rot vel   z-rot vel   x-rot acc   y-rot acc   z-rot acc
    22626  3.01343E-07 5.29948E-05 9.04292E-05-3.76761E-06 2.98346E-05 4.77672E-05-2.24076E-05-2.81445E-05-1.39934E-06



 n o d a l   p r i n t   o u t   f o r   t i m e  s t e p    3601                              ( at time 1.7998199E+00 )

 nodal point  x-disp     y-disp      z-disp      x-vel       y-vel       z-vel      x-accl      y-accl      z-accl      x-coor      y-coor      z-coor
    22626 -3.12366E-04-4.75642E-02-5.60339E+00-1.32721E-03-1.77171E-02-3.12732E+00-2.00552E-03 4.72083E-02-4.06807E-02 4.79639E+01-2.20774E+01 1.73511E+00



 n o d a l   p r i n t   o u t   f o r   t i m e  s t e p    3601                              ( at time 1.7998199E+00 )

 nodal point  x-rot      y-rot       z-rot       x-rot vel   y-rot vel   z-rot vel   x-rot acc   y-rot acc   z-rot acc
    22626  1.54028E-07 5.57839E-05 9.51899E-05-3.96070E-07 2.15331E-05 4.22493E-05 3.37189E-05-8.30236E-05-5.51855E-05



 n o d a l   p r i n t   o u t   f o r   t i m e  s t e p    3801                              ( at time 1.8998099E+00 )

 nodal point  x-disp     y-disp      z-disp      x-vel       y-vel       z-vel      x-accl      y-accl      z-accl      x-coor      y-coor      z-coor
    22626 -4.99958E-04-4.92018E-02-5.91621E+00-2.16397E-03-1.51679E-02-3.12982E+00-8.36841E-03 2.54943E-02-2.50317E-02 4.79637E+01-2.20790E+01 1.42229E+00



 n o d a l   p r i n t   o u t   f o r   t i m e  s t e p    3801                              ( at time 1.8998099E+00 )

 nodal point  x-rot      y-rot       z-rot       x-rot vel   y-rot vel   z-rot vel   x-rot acc   y-rot acc   z-rot acc
    22626 -9.13032E-08 5.76828E-05 9.86054E-05 1.57459E-06 1.55278E-05 2.76059E-05 1.97085E-05-6.00588E-05-1.46448E-04



 n o d a l   p r i n t   o u t   f o r   t i m e  s t e p    4001                              ( at time 1.9997999E+00 )

 nodal point  x-disp     y-disp      z-disp      x-vel       y-vel       z-vel      x-accl      y-accl      z-accl      x-coor      y-coor      z-coor
    22626 -6.73331E-04-5.05921E-02-6.22929E+00-1.64763E-03-1.28100E-02-3.13210E+00 5.16387E-03 2.35819E-02-2.27951E-02 4.79635E+01-2.20804E+01 1.10921E+00



 n o d a l   p r i n t   o u t   f o r   t i m e  s t e p    4001                              ( at time 1.9997999E+00 )

 nodal point  x-rot      y-rot       z-rot       x-rot vel   y-rot vel   z-rot vel   x-rot acc   y-rot acc   z-rot acc
    22626  1.15683E-07 5.90185E-05 1.00915E-04 3.40522E-06 1.32305E-05 2.01691E-05 1.83082E-05-2.29749E-05-7.43751E-05



 n o d a l   p r i n t   o u t   f o r   t i m e  s t e p    4201                              ( at time 2.0997899E+00 )

 nodal point  x-disp     y-disp      z-disp      x-vel       y-vel       z-vel      x-accl      y-accl      z-accl      x-coor      y-coor      z-coor
    22626 -8.42364E-04-5.16834E-02-6.54262E+00-1.86066E-03-9.15151E-03-3.13518E+00-2.13043E-03 3.65883E-02-3.08091E-02 4.79633E+01-2.20815E+01 7.95877E-01



 n o d a l   p r i n t   o u t   f o r   t i m e  s t e p    4201                              ( at time 2.0997899E+00 )

 nodal point  x-rot      y-rot       z-rot       x-rot vel   y-rot vel   z-rot vel   x-rot acc   y-rot acc   z-rot acc
    22626  3.99742E-07 5.96633E-05 1.02009E-04-1.38282E-06 3.40202E-06 1.59196E-06-4.78853E-05-9.82947E-05-1.85790E-04



 n o d a l   p r i n t   o u t   f o r   t i m e  s t e p    4401                              ( at time 2.1997798E+00 )

 nodal point  x-disp     y-disp      z-disp      x-vel       y-vel       z-vel      x-accl      y-accl      z-accl      x-coor      y-coor      z-coor
    22626 -1.08444E-03-5.23699E-02-6.85629E+00-2.77604E-03-4.41430E-03-3.13895E+00-9.15480E-03 4.73768E-02-3.77145E-02 4.79631E+01-2.20822E+01 4.82212E-01



 n o d a l   p r i n t   o u t   f o r   t i m e  s t e p    4401                              ( at time 2.1997798E+00 )

 nodal point  x-rot      y-rot       z-rot       x-rot vel   y-rot vel   z-rot vel   x-rot acc   y-rot acc   z-rot acc
    22626  2.22855E-07 5.96546E-05 1.01938E-04-1.17157E-06-2.19699E-06-3.14429E-06 2.11279E-06-5.59958E-05-4.73672E-05



 n o d a l   p r i n t   o u t   f o r   t i m e  s t e p    4601                              ( at time 2.2997698E+00 )

 nodal point  x-disp     y-disp      z-disp      x-vel       y-vel       z-vel      x-accl      y-accl      z-accl      x-coor      y-coor      z-coor
    22626 -1.39332E-03-5.25651E-02-7.17034E+00-3.51021E-03-8.92601E-05-3.14227E+00-7.34242E-03 4.32547E-02-3.32269E-02 4.79628E+01-2.20824E+01 1.68162E-01



 n o d a l   p r i n t   o u t   f o r   t i m e  s t e p    4601                              ( at time 2.2997698E+00 )

 nodal point  x-rot      y-rot       z-rot       x-rot vel   y-rot vel   z-rot vel   x-rot acc   y-rot acc   z-rot acc
    22626 -1.65770E-07 5.93428E-05 1.01567E-04-4.52835E-06-9.78130E-06-1.28655E-05-3.35712E-05-7.58505E-05-9.72216E-05



 n o d a l   p r i n t   o u t   f o r   t i m e  s t e p    4801                              ( at time 2.3997598E+00 )

 nodal point  x-disp     y-disp      z-disp      x-vel       y-vel       z-vel      x-accl      y-accl      z-accl      x-coor      y-coor      z-coor
    22626 -1.76188E-03-5.24782E-02-7.48464E+00-3.60789E-03 1.86329E-03-3.14440E+00-9.76919E-04 1.95275E-02-2.12548E-02 4.79624E+01-2.20823E+01-1.46135E-01



 n o d a l   p r i n t   o u t   f o r   t i m e  s t e p    4801                              ( at time 2.3997598E+00 )

 nodal point  x-rot      y-rot       z-rot       x-rot vel   y-rot vel   z-rot vel   x-rot acc   y-rot acc   z-rot acc
    22626 -7.13948E-07 5.80784E-05 9.90847E-05-6.02279E-06-1.61047E-05-3.37833E-05-1.49458E-05-6.32402E-05-2.09199E-04



 n o d a l   p r i n t   o u t   f o r   t i m e  s t e p    5001                              ( at time 2.4997498E+00 )

 nodal point  x-disp     y-disp      z-disp      x-vel       y-vel       z-vel      x-accl      y-accl      z-accl      x-coor      y-coor      z-coor
    22626 -2.15511E-03-5.21707E-02-7.79916E+00-4.24050E-03 4.96471E-03-3.14711E+00-6.32672E-03 3.10172E-02-2.71419E-02 4.79620E+01-2.20820E+01-4.60662E-01



 n o d a l   p r i n t   o u t   f o r   t i m e  s t e p    5001                              ( at time 2.4997498E+00 )

 nodal point  x-rot      y-rot       z-rot       x-rot vel   y-rot vel   z-rot vel   x-rot acc   y-rot acc   z-rot acc
    22626 -1.16223E-06 5.58451E-05 9.51152E-05-4.05925E-06-2.64553E-05-4.87017E-05 1.96374E-05-1.03517E-04-1.49199E-04



 n o d a l   p r i n t   o u t   f o r   t i m e  s t e p    5201                              ( at time 2.5997398E+00 )

 nodal point  x-disp     y-disp      z-disp      x-vel       y-vel       z-vel      x-accl      y-accl      z-accl      x-coor      y-coor      z-coor
    22626 -2.62933E-03-5.14565E-02-8.11403E+00-5.25216E-03 9.27331E-03-3.15069E+00-1.01176E-02 4.30903E-02-3.58189E-02 4.79616E+01-2.20812E+01-7.75527E-01



 n o d a l   p r i n t   o u t   f o r   t i m e  s t e p    5201                              ( at time 2.5997398E+00 )

 nodal point  x-rot      y-rot       z-rot       x-rot vel   y-rot vel   z-rot vel   x-rot acc   y-rot acc   z-rot acc
    22626 -1.53383E-06 5.27409E-05 8.96766E-05-4.73348E-06-3.57694E-05-6.22751E-05-6.74306E-06-9.31504E-05-1.35748E-04



 n o d a l   p r i n t   o u t   f o r   t i m e  s t e p    5401                              ( at time 2.6997298E+00 )

 nodal point  x-disp     y-disp      z-disp      x-vel       y-vel       z-vel      x-accl      y-accl      z-accl      x-coor      y-coor      z-coor
    22626 -3.19902E-03-5.03220E-02-8.42925E+00-6.42399E-03 1.29737E-02-3.15421E+00-1.17195E-02 3.70080E-02-3.51750E-02 4.79610E+01-2.20801E+01-1.09075E+00



 n o d a l   p r i n t   o u t   f o r   t i m e  s t e p    5401                              ( at time 2.6997298E+00 )

 nodal point  x-rot      y-rot       z-rot       x-rot vel   y-rot vel   z-rot vel   x-rot acc   y-rot acc   z-rot acc
    22626 -1.83263E-06 4.89897E-05 8.31744E-05-1.84080E-06-4.12912E-05-6.67001E-05 2.89297E-05-5.52239E-05-4.42543E-05



 n o d a l   p r i n t   o u t   f o r   t i m e  s t e p    5601                              ( at time 2.7997198E+00 )

 nodal point  x-disp     y-disp      z-disp      x-vel       y-vel       z-vel      x-accl      y-accl      z-accl      x-coor      y-coor      z-coor
    22626 -3.91289E-03-4.88975E-02-8.74475E+00-7.68526E-03 1.51473E-02-3.15635E+00-1.26139E-02 2.17381E-02-2.14050E-02 4.79603E+01-2.20787E+01-1.40625E+00



 n o d a l   p r i n t   o u t   f o r   t i m e  s t e p    5601                              ( at time 2.7997198E+00 )

 nodal point  x-rot      y-rot       z-rot       x-rot vel   y-rot vel   z-rot vel   x-rot acc   y-rot acc   z-rot acc
    22626 -1.96349E-06 4.40943E-05 7.50631E-05 3.05212E-07-5.74926E-05-9.85919E-05 2.14623E-05-1.62030E-04-3.18951E-04



 n o d a l   p r i n t   o u t   f o r   t i m e  s t e p    5801                              ( at time 2.8997098E+00 )

 nodal point  x-disp     y-disp      z-disp      x-vel       y-vel       z-vel      x-accl      y-accl      z-accl      x-coor      y-coor      z-coor
    22626 -4.68466E-03-4.73291E-02-9.06045E+00-7.81596E-03 1.61416E-02-3.15804E+00-1.30709E-03 9.94345E-03-1.68841E-02 4.79595E+01-2.20771E+01-1.72194E+00



 n o d a l   p r i n t   o u t   f o r   t i m e  s t e p    5801                              ( at time 2.8997098E+00 )

 nodal point  x-rot      y-rot       z-rot       x-rot vel   y-rot vel   z-rot vel   x-rot acc   y-rot acc   z-rot acc
    22626 -1.76556E-06 3.76542E-05 6.41549E-05 2.48489E-06-6.65206E-05-1.15464E-04 2.17990E-05-9.02893E-05-1.68742E-04



 n o d a l   p r i n t   o u t   f o r   t i m e  s t e p    6001                              ( at time 2.9996998E+00 )

 nodal point  x-disp     y-disp      z-disp      x-vel       y-vel       z-vel      x-accl      y-accl      z-accl      x-coor      y-coor      z-coor
    22626 -5.50501E-03-4.55976E-02-9.37632E+00-8.82692E-03 1.86350E-02-3.16041E+00-1.01107E-02 2.49371E-02-2.36940E-02 4.79587E+01-2.20754E+01-2.03782E+00



 n o d a l   p r i n t   o u t   f o r   t i m e  s t e p    6001                              ( at time 2.9996998E+00 )

 nodal point  x-rot      y-rot       z-rot       x-rot vel   y-rot vel   z-rot vel   x-rot acc   y-rot acc   z-rot acc
    22626 -1.53290E-06 3.07929E-05 5.25934E-05 6.17018E-07-7.09634E-05-1.21002E-04-1.86806E-05-4.44317E-05-5.53791E-05



 n o d a l   p r i n t   o u t   f o r   t i m e  s t e p    6201                              ( at time 3.0996898E+00 )

 nodal point  x-disp     y-disp      z-disp      x-vel       y-vel       z-vel      x-accl      y-accl      z-accl      x-coor      y-coor      z-coor
    22626 -6.47033E-03-4.36164E-02-9.69245E+00-1.04151E-02 2.05538E-02-3.16240E+00-1.58832E-02 1.91899E-02-1.99243E-02 4.79577E+01-2.20734E+01-2.35395E+00



 n o d a l   p r i n t   o u t   f o r   t i m e  s t e p    6201                              ( at time 3.0996898E+00 )

 nodal point  x-rot      y-rot       z-rot       x-rot vel   y-rot vel   z-rot vel   x-rot acc   y-rot acc   z-rot acc
    22626 -1.57859E-06 2.34338E-05 3.99608E-05-1.91614E-06-7.58360E-05-1.33510E-04-2.53341E-05-4.87311E-05-1.25092E-04



 n o d a l   p r i n t   o u t   f o r   t i m e  s t e p    6401                              ( at time 3.1996798E+00 )

 nodal point  x-disp     y-disp      z-disp      x-vel       y-vel       z-vel      x-accl      y-accl      z-accl      x-coor      y-coor      z-coor
    22626 -7.54442E-03-4.15924E-02-1.00087E+01-1.11292E-02 1.93793E-02-3.16270E+00-7.14204E-03-1.17468E-02-2.98053E-03 4.79566E+01-2.20714E+01-2.67019E+00



 n o d a l   p r i n t   o u t   f o r   t i m e  s t e p    6401                              ( at time 3.1996798E+00 )

 nodal point  x-rot      y-rot       z-rot       x-rot vel   y-rot vel   z-rot vel   x-rot acc   y-rot acc   z-rot acc
    22626 -1.79772E-06 1.53353E-05 2.63182E-05-5.48042E-06-8.61476E-05-1.44953E-04-3.56464E-05-1.03126E-04-1.14441E-04



 n o d a l   p r i n t   o u t   f o r   t i m e  s t e p    6601                              ( at time 3.2996698E+00 )

 nodal point  x-disp     y-disp      z-disp      x-vel       y-vel       z-vel      x-accl      y-accl      z-accl      x-coor      y-coor      z-coor
    22626 -8.72895E-03-3.98155E-02-1.03248E+01-1.26777E-02 1.62156E-02-3.15868E+00-1.54859E-02-3.16397E-02 4.01561E-02 4.79555E+01-2.20696E+01-2.98626E+00



 n o d a l   p r i n t   o u t   f o r   t i m e  s t e p    6601                              ( at time 3.2996698E+00 )

 nodal point  x-rot      y-rot       z-rot       x-rot vel   y-rot vel   z-rot vel   x-rot acc   y-rot acc   z-rot acc
    22626 -1.55745E-06 5.74582E-06 1.20290E-05 2.13371E-05-1.11616E-04-1.43021E-04 2.68203E-04-2.54714E-04 1.93158E-05



 n o d a l   p r i n t   o u t   f o r   t i m e  s t e p    6801                              ( at time 3.3996598E+00 )

 nodal point  x-disp     y-disp      z-disp      x-vel       y-vel       z-vel      x-accl      y-accl      z-accl      x-coor      y-coor      z-coor
    22626 -1.01393E-02-3.83183E-02-1.06402E+01-1.56359E-02 1.38805E-02-3.15025E+00-2.95855E-02-2.33531E-02 8.43298E-02 4.79540E+01-2.20681E+01-3.30171E+00



 n o d a l   p r i n t   o u t   f o r   t i m e  s t e p    6801                              ( at time 3.3996598E+00 )

 nodal point  x-rot      y-rot       z-rot       x-rot vel   y-rot vel   z-rot vel   x-rot acc   y-rot acc   z-rot acc
    22626  4.99382E-06-7.46951E-06-1.25135E-06 1.14352E-04-1.57436E-04-1.26091E-04 9.30240E-04-4.58245E-04 1.69324E-04



 n o d a l   p r i n t   o u t   f o r   t i m e  s t e p    7001                              ( at time 3.4996498E+00 )

 nodal point  x-disp     y-disp      z-disp      x-vel       y-vel       z-vel      x-accl      y-accl      z-accl      x-coor      y-coor      z-coor
    22626 -1.18819E-02-3.70992E-02-1.09546E+01-1.94512E-02 1.01111E-02-3.13733E+00-3.81567E-02-3.76983E-02 1.29281E-01 4.79523E+01-2.20669E+01-3.61610E+00



 n o d a l   p r i n t   o u t   f o r   t i m e  s t e p    7001                              ( at time 3.4996498E+00 )

 nodal point  x-rot      y-rot       z-rot       x-rot vel   y-rot vel   z-rot vel   x-rot acc   y-rot acc   z-rot acc
    22626  2.21244E-05-2.63799E-05-1.16040E-05 2.34437E-04-2.25539E-04-8.13191E-05 1.20097E-03-6.81094E-04 4.47760E-04



 n o d a l   p r i n t   o u t   f o r   t i m e  s t e p    7201                              ( at time 3.5996397E+00 )

 nodal point  x-disp     y-disp      z-disp      x-vel       y-vel       z-vel      x-accl      y-accl      z-accl      x-coor      y-coor      z-coor
    22626 -1.40384E-02-3.63622E-02-1.12674E+01-2.34178E-02 4.06744E-03-3.11699E+00-3.96702E-02-6.04427E-02 2.03337E-01 4.79501E+01-2.20662E+01-3.92888E+00



 n o d a l   p r i n t   o u t   f o r   t i m e  s t e p    7201                              ( at time 3.5996397E+00 )

 nodal point  x-rot      y-rot       z-rot       x-rot vel   y-rot vel   z-rot vel   x-rot acc   y-rot acc   z-rot acc
    22626  5.19926E-05-5.23477E-05-1.71284E-05 3.77025E-04-2.89772E-04-2.00119E-05 1.42603E-03-6.42395E-04 6.13134E-04



 n o d a l   p r i n t   o u t   f o r   t i m e  s t e p    7401                              ( at time 3.6996297E+00 )

 nodal point  x-disp     y-disp      z-disp      x-vel       y-vel       z-vel      x-accl      y-accl      z-accl      x-coor      y-coor      z-coor
    22626 -1.66626E-02-3.61297E-02-1.15775E+01-2.84326E-02 7.67256E-04-3.08611E+00-5.01528E-02-3.30051E-02 3.08864E-01 4.79475E+01-2.20659E+01-4.23904E+00



 n o d a l   p r i n t   o u t   f o r   t i m e  s t e p    7401                              ( at time 3.6996297E+00 )

 nodal point  x-rot      y-rot       z-rot       x-rot vel   y-rot vel   z-rot vel   x-rot acc   y-rot acc   z-rot acc
    22626  1.03133E-04-8.28880E-05-1.95423E-05 6.62666E-04-3.08583E-04-1.37466E-05 2.85669E-03-1.88132E-04 6.26589E-05



 n o d a l   p r i n t   o u t   f o r   t i m e  s t e p    7601                              ( at time 3.7996197E+00 )

 nodal point  x-disp     y-disp      z-disp      x-vel       y-vel       z-vel      x-accl      y-accl      z-accl      x-coor      y-coor      z-coor
    22626 -1.98232E-02-3.61275E-02-1.18842E+01-3.43031E-02-4.38105E-04-3.04584E+00-5.87109E-02-1.20548E-02 4.02789E-01 4.79444E+01-2.20659E+01-4.54570E+00



 n o d a l   p r i n t   o u t   f o r   t i m e  s t e p    7601                              ( at time 3.7996197E+00 )

 nodal point  x-rot      y-rot       z-rot       x-rot vel   y-rot vel   z-rot vel   x-rot acc   y-rot acc   z-rot acc
    22626  1.87080E-04-1.11995E-04-2.13270E-05 1.03561E-03-2.75970E-04 3.29477E-06 3.72983E-03 3.26163E-04 1.70431E-04



 n o d a l   p r i n t   o u t   f o r   t i m e  s t e p    7801                              ( at time 3.8996097E+00 )

 nodal point  x-disp     y-disp      z-disp      x-vel       y-vel       z-vel      x-accl      y-accl      z-accl      x-coor      y-coor      z-coor
    22626 -2.34123E-02-3.62525E-02-1.21865E+01-3.74915E-02-2.51909E-03-2.99987E+00-3.18871E-02-2.08119E-02 4.59740E-01 4.79408E+01-2.20660E+01-4.84802E+00



 n o d a l   p r i n t   o u t   f o r   t i m e  s t e p    7801                              ( at time 3.8996097E+00 )

 nodal point  x-rot      y-rot       z-rot       x-rot vel   y-rot vel   z-rot vel   x-rot acc   y-rot acc   z-rot acc
    22626  3.11190E-04-1.39555E-04-1.95865E-05 1.43902E-03-2.58701E-04 4.37700E-05 4.03450E-03 1.72708E-04 4.04792E-04



 n o d a l   p r i n t   o u t   f o r   t i m e  s t e p    8001                              ( at time 3.9995997E+00 )

 nodal point  x-disp     y-disp      z-disp      x-vel       y-vel       z-vel      x-accl      y-accl      z-accl      x-coor      y-coor      z-coor
    22626 -2.73264E-02-3.64839E-02-1.24838E+01-4.07961E-02-1.37370E-03-2.94643E+00-3.30498E-02 1.14550E-02 5.34364E-01 4.79369E+01-2.20663E+01-5.14527E+00



 n o d a l   p r i n t   o u t   f o r   t i m e  s t e p    8001                              ( at time 3.9995997E+00 )

 nodal point  x-rot      y-rot       z-rot       x-rot vel   y-rot vel   z-rot vel   x-rot acc   y-rot acc   z-rot acc
    22626  4.77243E-04-1.62165E-04-1.59442E-05 1.90521E-03-1.96111E-04 2.47970E-05 4.66241E-03 6.25961E-04-1.89749E-04



 n o d a l   p r i n t   o u t   f o r   t i m e  s t e p    8201                              ( at time 4.0995897E+00 )

 nodal point  x-disp     y-disp      z-disp      x-vel       y-vel       z-vel      x-accl      y-accl      z-accl      x-coor      y-coor      z-coor
    22626 -3.14927E-02-3.65113E-02-1.27757E+01-4.27512E-02 6.97150E-04-2.89114E+00-1.95530E-02 2.07106E-02 5.53012E-01 4.79327E+01-2.20663E+01-5.43716E+00



 n o d a l   p r i n t   o u t   f o r   t i m e  s t e p    8201                              ( at time 4.0995897E+00 )

 nodal point  x-rot      y-rot       z-rot       x-rot vel   y-rot vel   z-rot vel   x-rot acc   y-rot acc   z-rot acc
    22626  6.91694E-04-1.75726E-04-1.52098E-05 2.36919E-03-3.63423E-05-3.18612E-06 4.64018E-03 1.59785E-03-2.79858E-04



 n o d a l   p r i n t   o u t   f o r   t i m e  s t e p    8401                              ( at time 4.1995797E+00 )

 nodal point  x-disp     y-disp      z-disp      x-vel       y-vel       z-vel      x-accl      y-accl      z-accl      x-coor      y-coor      z-coor
    22626 -3.58161E-02-3.64029E-02-1.30619E+01-4.34759E-02 1.98950E-03-2.83508E+00-7.24728E-03 1.29248E-02 5.60610E-01 4.79284E+01-2.20662E+01-5.72343E+00



 n o d a l   p r i n t   o u t   f o r   t i m e  s t e p    8401                              ( at time 4.1995797E+00 )

 nodal point  x-rot      y-rot       z-rot       x-rot vel   y-rot vel   z-rot vel   x-rot acc   y-rot acc   z-rot acc
    22626  9.51566E-04-1.70070E-04-1.57761E-05 2.84713E-03 1.65708E-04-8.51071E-06 4.77991E-03 2.02071E-03-5.32513E-05



 n o d a l   p r i n t   o u t   f o r   t i m e  s t e p    8601                              ( at time 4.2995697E+00 )

 nodal point  x-disp     y-disp      z-disp      x-vel       y-vel       z-vel      x-accl      y-accl      z-accl      x-coor      y-coor      z-coor
    22626 -4.01078E-02-3.60264E-02-1.33427E+01-4.26864E-02 5.44919E-03-2.78112E+00 7.89629E-03 3.46004E-02 5.39715E-01 4.79241E+01-2.20658E+01-6.00416E+00



 n o d a l   p r i n t   o u t   f o r   t i m e  s t e p    8601                              ( at time 4.2995697E+00 )

 nodal point  x-rot      y-rot       z-rot       x-rot vel   y-rot vel   z-rot vel   x-rot acc   y-rot acc   z-rot acc
    22626  1.26120E-03-1.41140E-04-1.85068E-05 3.30784E-03 4.13489E-04-4.44085E-05 4.60761E-03 2.47806E-03-3.59014E-04



 n o d a l   p r i n t   o u t   f o r   t i m e  s t e p    8801                              ( at time 4.3995597E+00 )

 nodal point  x-disp     y-disp      z-disp      x-vel       y-vel       z-vel      x-accl      y-accl      z-accl      x-coor      y-coor      z-coor
    22626 -4.44094E-02-3.53223E-02-1.36182E+01-4.26051E-02 1.00850E-02-2.73087E+00 8.12419E-04 4.63629E-02 5.02535E-01 4.79198E+01-2.20651E+01-6.27968E+00



 n o d a l   p r i n t   o u t   f o r   t i m e  s t e p    8801                              ( at time 4.3995597E+00 )

 nodal point  x-rot      y-rot       z-rot       x-rot vel   y-rot vel   z-rot vel   x-rot acc   y-rot acc   z-rot acc
    22626  1.61036E-03-8.43054E-05-2.39515E-05 3.67613E-03 7.25674E-04-8.39558E-05 3.68328E-03 3.12217E-03-3.95513E-04



 n o d a l   p r i n t   o u t   f o r   t i m e  s t e p    9001                              ( at time 4.4995497E+00 )

 nodal point  x-disp     y-disp      z-disp      x-vel       y-vel       z-vel      x-accl      y-accl      z-accl      x-coor      y-coor      z-coor
    22626 -4.85449E-02-3.40625E-02-1.38889E+01-3.98386E-02 1.49884E-02-2.68445E+00 2.76682E-02 4.90383E-02 4.64270E-01 4.79156E+01-2.20639E+01-6.55041E+00



 n o d a l   p r i n t   o u t   f o r   t i m e  s t e p    9001                              ( at time 4.4995497E+00 )

 nodal point  x-rot      y-rot       z-rot       x-rot vel   y-rot vel   z-rot vel   x-rot acc   y-rot acc   z-rot acc
    22626  1.99861E-03 6.05080E-06-3.32512E-05 4.05714E-03 1.06412E-03-1.20552E-04 3.81040E-03 3.38482E-03-3.66000E-04



 n o d a l   p r i n t   o u t   f o r   t i m e  s t e p    9201                              ( at time 4.5995397E+00 )

 nodal point  x-disp     y-disp      z-disp      x-vel       y-vel       z-vel      x-accl      y-accl      z-accl      x-coor      y-coor      z-coor
    22626 -5.22261E-02-3.24079E-02-1.41548E+01-3.34379E-02 1.79792E-02-2.63543E+00 6.40134E-02 2.99114E-02 4.90236E-01 4.79120E+01-2.20622E+01-6.81634E+00



 n o d a l   p r i n t   o u t   f o r   t i m e  s t e p    9201                              ( at time 4.5995397E+00 )

 nodal point  x-rot      y-rot       z-rot       x-rot vel   y-rot vel   z-rot vel   x-rot acc   y-rot acc   z-rot acc
    22626  2.42130E-03 1.29869E-04-4.84790E-05 4.38606E-03 1.41776E-03-1.85400E-04 3.28959E-03 3.53669E-03-6.48548E-04



 n o d a l   p r i n t   o u t   f o r   t i m e  s t e p    9401                              ( at time 4.6995297E+00 )

 nodal point  x-disp     y-disp      z-disp      x-vel       y-vel       z-vel      x-accl      y-accl      z-accl      x-coor      y-coor      z-coor
    22626 -5.52449E-02-3.03201E-02-1.44162E+01-2.72200E-02 2.29834E-02-2.59218E+00 6.21850E-02 5.00475E-02 4.32568E-01 4.79089E+01-2.20601E+01-7.07770E+00



 n o d a l   p r i n t   o u t   f o r   t i m e  s t e p    9401                              ( at time 4.6995297E+00 )

 nodal point  x-rot      y-rot       z-rot       x-rot vel   y-rot vel   z-rot vel   x-rot acc   y-rot acc   z-rot acc
    22626  2.87563E-03 2.88802E-04-6.90360E-05 4.66175E-03 1.77812E-03-2.15229E-04 2.75718E-03 3.60399E-03-2.98312E-04



 n o d a l   p r i n t   o u t   f o r   t i m e  s t e p    9601                              ( at time 4.7995197E+00 )

 nodal point  x-disp     y-disp      z-disp      x-vel       y-vel       z-vel      x-accl      y-accl      z-accl      x-coor      y-coor      z-coor
    22626 -5.76280E-02-2.77626E-02-1.46732E+01-1.91253E-02 2.80287E-02-2.54944E+00 8.09556E-02 5.04572E-02 4.27366E-01 4.79066E+01-2.20576E+01-7.33468E+00



 n o d a l   p r i n t   o u t   f o r   t i m e  s t e p    9601                              ( at time 4.7995197E+00 )

 nodal point  x-rot      y-rot       z-rot       x-rot vel   y-rot vel   z-rot vel   x-rot acc   y-rot acc   z-rot acc
    22626  3.35535E-03 4.83858E-04-9.29754E-05 4.94299E-03 2.12392E-03-2.50673E-04 2.81260E-03 3.45841E-03-3.54479E-04



 n o d a l   p r i n t   o u t   f o r   t i m e  s t e p    9801                              ( at time 4.8995097E+00 )

 nodal point  x-disp     y-disp      z-disp      x-vel       y-vel       z-vel      x-accl      y-accl      z-accl      x-coor      y-coor      z-coor
    22626 -5.89409E-02-2.45049E-02-1.49259E+01-7.87292E-03 3.61496E-02-2.50657E+00 1.12535E-01 8.12175E-02 4.28827E-01 4.79052E+01-2.20543E+01-7.58743E+00



 n o d a l   p r i n t   o u t   f o r   t i m e  s t e p    9801                              ( at time 4.8995097E+00 )

 nodal point  x-rot      y-rot       z-rot       x-rot vel   y-rot vel   z-rot vel   x-rot acc   y-rot acc   z-rot acc
    22626  3.86244E-03 7.13211E-04-1.22342E-04 5.19410E-03 2.45685E-03-3.20520E-04 2.51141E-03 3.32961E-03-6.98543E-04



 n o d a l   p r i n t   o u t   f o r   t i m e  s t e p   10001                              ( at time 4.9994997E+00 )

 nodal point  x-disp     y-disp      z-disp      x-vel       y-vel       z-vel      x-accl      y-accl      z-accl      x-coor      y-coor      z-coor
    22626 -5.91096E-02-2.07371E-02-1.51745E+01 4.27921E-03 3.91106E-02-2.46561E+00 1.21533E-01 2.96136E-02 4.09557E-01 4.79051E+01-2.20505E+01-7.83605E+00



 n o d a l   p r i n t   o u t   f o r   t i m e  s t e p   10001                              ( at time 4.9994997E+00 )

 nodal point  x-rot      y-rot       z-rot       x-rot vel   y-rot vel   z-rot vel   x-rot acc   y-rot acc   z-rot acc
    22626  4.38981E-03 9.74179E-04-1.57421E-04 5.37067E-03 2.77431E-03-3.69943E-04 1.76581E-03 3.17487E-03-4.94277E-04



 n o d a l   p r i n t   o u t   f o r   t i m e  s t e p   10202                              ( at time 5.0999896E+00 )

 nodal point  x-disp     y-disp      z-disp      x-vel       y-vel       z-vel      x-accl      y-accl      z-accl      x-coor      y-coor      z-coor
    22626 -5.80929E-02-1.65025E-02-1.54201E+01 1.67723E-02 4.58699E-02-2.42269E+00 1.24322E-01 6.72628E-02 4.27136E-01 4.79061E+01-2.20463E+01-8.08160E+00



 n o d a l   p r i n t   o u t   f o r   t i m e  s t e p   10202                              ( at time 5.0999896E+00 )

 nodal point  x-rot      y-rot       z-rot       x-rot vel   y-rot vel   z-rot vel   x-rot acc   y-rot acc   z-rot acc
    22626  4.93928E-03 1.26987E-03-1.96201E-04 5.57298E-03 3.08760E-03-4.01040E-04 2.01325E-03 3.11762E-03-3.09449E-04



 n o d a l   p r i n t   o u t   f o r   t i m e  s t e p   10402                              ( at time 5.1999796E+00 )

 nodal point  x-disp     y-disp      z-disp      x-vel       y-vel       z-vel      x-accl      y-accl      z-accl      x-coor      y-coor      z-coor
    22626 -5.56805E-02-1.16644E-02-1.56603E+01 3.15328E-02 5.04588E-02-2.37953E+00 1.47619E-01 4.58940E-02 4.31627E-01 4.79085E+01-2.20415E+01-8.32175E+00



 n o d a l   p r i n t   o u t   f o r   t i m e  s t e p   10402                              ( at time 5.1999796E+00 )

 nodal point  x-rot      y-rot       z-rot       x-rot vel   y-rot vel   z-rot vel   x-rot acc   y-rot acc   z-rot acc
    22626  5.50601E-03 1.59493E-03-2.39649E-04 5.75025E-03 3.41859E-03-4.62918E-04 1.77292E-03 3.31023E-03-6.18843E-04



 n o d a l   p r i n t   o u t   f o r   t i m e  s t e p   10602                              ( at time 5.2999696E+00 )

 nodal point  x-disp     y-disp      z-disp      x-vel       y-vel       z-vel      x-accl      y-accl      z-accl      x-coor      y-coor      z-coor
    22626 -5.17552E-02-6.29115E-03-1.58959E+01 4.65386E-02 5.78036E-02-2.33418E+00 1.50074E-01 7.34555E-02 4.53561E-01 4.79124E+01-2.20361E+01-8.55739E+00



 n o d a l   p r i n t   o u t   f o r   t i m e  s t e p   10602                              ( at time 5.2999696E+00 )

 nodal point  x-rot      y-rot       z-rot       x-rot vel   y-rot vel   z-rot vel   x-rot acc   y-rot acc   z-rot acc
    22626  6.08851E-03 1.95067E-03-2.89314E-04 5.91294E-03 3.69647E-03-5.27461E-04 1.62708E-03 2.77913E-03-6.45499E-04



 n o d a l   p r i n t   o u t   f o r   t i m e  s t e p   10802                              ( at time 5.3999596E+00 )

 nodal point  x-disp     y-disp      z-disp      x-vel       y-vel       z-vel      x-accl      y-accl      z-accl      x-coor      y-coor      z-coor
    22626 -4.63852E-02-1.34475E-04-1.61269E+01 6.12372E-02 6.45185E-02-2.28674E+00 1.47001E-01 6.71554E-02 4.74499E-01 4.79178E+01-2.20299E+01-8.78842E+00



 n o d a l   p r i n t   o u t   f o r   t i m e  s t e p   10802                              ( at time 5.3999596E+00 )

 nodal point  x-rot      y-rot       z-rot       x-rot vel   y-rot vel   z-rot vel   x-rot acc   y-rot acc   z-rot acc
    22626  6.68959E-03 2.33591E-03-3.45468E-04 6.10950E-03 3.99806E-03-5.96878E-04 1.96575E-03 3.01614E-03-6.94237E-04



 n o d a l   p r i n t   o u t   f o r   t i m e  s t e p   11002                              ( at time 5.4999496E+00 )

 nodal point  x-disp     y-disp      z-disp      x-vel       y-vel       z-vel      x-accl      y-accl      z-accl      x-coor      y-coor      z-coor
    22626 -3.94401E-02 6.49251E-03-1.63530E+01 7.76173E-02 6.88576E-02-2.23443E+00 1.63817E-01 4.33956E-02 5.23158E-01 4.79247E+01-2.20233E+01-9.01451E+00



 n o d a l   p r i n t   o u t   f o r   t i m e  s t e p   11002                              ( at time 5.4999496E+00 )

 nodal point  x-rot      y-rot       z-rot       x-rot vel   y-rot vel   z-rot vel   x-rot acc   y-rot acc   z-rot acc
    22626  7.30667E-03 2.75186E-03-4.08529E-04 6.26334E-03 4.31188E-03-6.72642E-04 1.53861E-03 3.13855E-03-7.57717E-04



 n o d a l   p r i n t   o u t   f o r   t i m e  s t e p   11202                              ( at time 5.5999396E+00 )

 nodal point  x-disp     y-disp      z-disp      x-vel       y-vel       z-vel      x-accl      y-accl      z-accl      x-coor      y-coor      z-coor
    22626 -3.09333E-02 1.36955E-02-1.65737E+01 9.19278E-02 7.47388E-02-2.18118E+00 1.43120E-01 5.88183E-02 5.32531E-01 4.79332E+01-2.20161E+01-9.23524E+00



 n o d a l   p r i n t   o u t   f o r   t i m e  s t e p   11202                              ( at time 5.5999396E+00 )

 nodal point  x-rot      y-rot       z-rot       x-rot vel   y-rot vel   z-rot vel   x-rot acc   y-rot acc   z-rot acc
    22626  7.94400E-03 3.19722E-03-4.79310E-04 6.47422E-03 4.58558E-03-7.43318E-04 2.10900E-03 2.73725E-03-7.06829E-04



 n o d a l   p r i n t   o u t   f o r   t i m e  s t e p   11402                              ( at time 5.6999296E+00 )

 nodal point  x-disp     y-disp      z-disp      x-vel       y-vel       z-vel      x-accl      y-accl      z-accl      x-coor      y-coor      z-coor
    22626 -2.10940E-02 2.15003E-02-1.67889E+01 1.04453E-01 7.99780E-02-2.12263E+00 1.25259E-01 5.23965E-02 5.85496E-01 4.79431E+01-2.20083E+01-9.45039E+00



 n o d a l   p r i n t   o u t   f o r   t i m e  s t e p   11402                              ( at time 5.6999296E+00 )

 nodal point  x-rot      y-rot       z-rot       x-rot vel   y-rot vel   z-rot vel   x-rot acc   y-rot acc   z-rot acc
    22626  8.60157E-03 3.67082E-03-5.58046E-04 6.68174E-03 4.87879E-03-8.33173E-04 2.07541E-03 2.93244E-03-8.98635E-04



 n o d a l   p r i n t   o u t   f o r   t i m e  s t e p   11602                              ( at time 5.7999195E+00 )

 nodal point  x-disp     y-disp      z-disp      x-vel       y-vel       z-vel      x-accl      y-accl      z-accl      x-coor      y-coor      z-coor
    22626 -9.98256E-03 2.96211E-02-1.69980E+01 1.16862E-01 8.31151E-02-2.05854E+00 1.24104E-01 3.13744E-02 6.40994E-01 4.79542E+01-2.20002E+01-9.65950E+00



 n o d a l   p r i n t   o u t   f o r   t i m e  s t e p   11602                              ( at time 5.7999195E+00 )

 nodal point  x-rot      y-rot       z-rot       x-rot vel   y-rot vel   z-rot vel   x-rot acc   y-rot acc   z-rot acc
    22626  9.28295E-03 4.17118E-03-6.44725E-04 6.96165E-03 5.13497E-03-9.26030E-04 2.79931E-03 2.56200E-03-9.28670E-04



 n o d a l   p r i n t   o u t   f o r   t i m e  s t e p   11802                              ( at time 5.8999095E+00 )

 nodal point  x-disp     y-disp      z-disp      x-vel       y-vel       z-vel      x-accl      y-accl      z-accl      x-coor      y-coor      z-coor
    22626  2.29813E-03 3.79408E-02-1.72003E+01 1.27972E-01 8.34646E-02-1.98746E+00 1.11113E-01 3.49512E-03 7.10924E-01 4.79665E+01-2.19918E+01-9.86178E+00



 n o d a l   p r i n t   o u t   f o r   t i m e  s t e p   11802                              ( at time 5.8999095E+00 )

 nodal point  x-rot      y-rot       z-rot       x-rot vel   y-rot vel   z-rot vel   x-rot acc   y-rot acc   z-rot acc
    22626  9.99410E-03 4.69665E-03-7.40776E-04 7.27359E-03 5.37051E-03-1.00268E-03 3.11980E-03 2.35570E-03-7.66622E-04



 n o d a l   p r i n t   o u t   f o r   t i m e  s t e p   12002                              ( at time 5.9998995E+00 )

 nodal point  x-disp     y-disp      z-disp      x-vel       y-vel       z-vel      x-accl      y-accl      z-accl      x-coor      y-coor      z-coor
    22626  1.55965E-02 4.63081E-02-1.73952E+01 1.37176E-01 8.41530E-02-1.91090E+00 9.20499E-02 6.88488E-03 7.65672E-01 4.79798E+01-2.19835E+01-1.00567E+01



 n o d a l   p r i n t   o u t   f o r   t i m e  s t e p   12002                              ( at time 5.9998995E+00 )

 nodal point  x-rot      y-rot       z-rot       x-rot vel   y-rot vel   z-rot vel   x-rot acc   y-rot acc   z-rot acc
    22626  1.07389E-02 5.24274E-03-8.44555E-04 7.64027E-03 5.56224E-03-1.07082E-03 3.66717E-03 1.91747E-03-6.81407E-04



 n o d a l   p r i n t   o u t   f o r   t i m e  s t e p   12202                              ( at time 6.0998895E+00 )

 nodal point  x-disp     y-disp      z-disp      x-vel       y-vel       z-vel      x-accl      y-accl      z-accl      x-coor      y-coor      z-coor
    22626  2.96218E-02 5.46104E-02-1.75822E+01 1.42538E-01 8.40877E-02-1.82755E+00 5.36248E-02-6.53255E-04 8.33521E-01 4.79938E+01-2.19752E+01-1.02437E+01



 n o d a l   p r i n t   o u t   f o r   t i m e  s t e p   12202                              ( at time 6.0998895E+00 )

 nodal point  x-rot      y-rot       z-rot       x-rot vel   y-rot vel   z-rot vel   x-rot acc   y-rot acc   z-rot acc
    22626  1.15253E-02 5.80899E-03-9.54134E-04 8.11004E-03 5.75151E-03-1.14971E-03 4.69812E-03 1.89283E-03-7.88990E-04



 n o d a l   p r i n t   o u t   f o r   t i m e  s t e p   12402                              ( at time 6.1998795E+00 )

 nodal point  x-disp     y-disp      z-disp      x-vel       y-vel       z-vel      x-accl      y-accl      z-accl      x-coor      y-coor      z-coor
    22626  4.41423E-02 6.29624E-02-1.77606E+01 1.46422E-01 8.21466E-02-1.74232E+00 3.88417E-02-1.94127E-02 8.52450E-01 4.80083E+01-2.19668E+01-1.04221E+01



 n o d a l   p r i n t   o u t   f o r   t i m e  s t e p   12402                              ( at time 6.1998795E+00 )

 nodal point  x-rot      y-rot       z-rot       x-rot vel   y-rot vel   z-rot vel   x-rot acc   y-rot acc   z-rot acc
    22626  1.23601E-02 6.39413E-03-1.07157E-03 8.57182E-03 5.92274E-03-1.19963E-03 4.61824E-03 1.71253E-03-4.99208E-04



 n o d a l   p r i n t   o u t   f o r   t i m e  s t e p   12602                              ( at time 6.2998695E+00 )

 nodal point  x-disp     y-disp      z-disp      x-vel       y-vel       z-vel      x-accl      y-accl      z-accl      x-coor      y-coor      z-coor
    22626  5.89093E-02 7.09612E-02-1.79303E+01 1.49288E-01 7.77214E-02-1.65197E+00 2.86644E-02-4.42562E-02 9.03512E-01 4.80231E+01-2.19588E+01-1.05918E+01



 n o d a l   p r i n t   o u t   f o r   t i m e  s t e p   12602                              ( at time 6.2998695E+00 )

 nodal point  x-rot      y-rot       z-rot       x-rot vel   y-rot vel   z-rot vel   x-rot acc   y-rot acc   z-rot acc
    22626  1.32401E-02 6.99542E-03-1.19376E-03 9.04021E-03 6.08812E-03-1.26056E-03 4.68436E-03 1.65396E-03-6.09406E-04



 n o d a l   p r i n t   o u t   f o r   t i m e  s t e p   12802                              ( at time 6.3998595E+00 )

 nodal point  x-disp     y-disp      z-disp      x-vel       y-vel       z-vel      x-accl      y-accl      z-accl      x-coor      y-coor      z-coor
    22626  7.38320E-02 7.85527E-02-1.80908E+01 1.48907E-01 7.49778E-02-1.55811E+00-3.80614E-03-2.74395E-02 9.38730E-01 4.80380E+01-2.19512E+01-1.07523E+01



 n o d a l   p r i n t   o u t   f o r   t i m e  s t e p   12802                              ( at time 6.3998595E+00 )

 nodal point  x-rot      y-rot       z-rot       x-rot vel   y-rot vel   z-rot vel   x-rot acc   y-rot acc   z-rot acc
    22626  1.41712E-02 7.61320E-03-1.32259E-03 9.58268E-03 6.26798E-03-1.31725E-03 5.42523E-03 1.79875E-03-5.66934E-04



 n o d a l   p r i n t   o u t   f o r   t i m e  s t e p   13002                              ( at time 6.4998495E+00 )

 nodal point  x-disp     y-disp      z-disp      x-vel       y-vel       z-vel      x-accl      y-accl      z-accl      x-coor      y-coor      z-coor
    22626  8.86405E-02 8.58418E-02-1.82421E+01 1.47886E-01 6.96013E-02-1.46913E+00-1.02097E-02-5.37701E-02 8.89886E-01 4.80528E+01-2.19439E+01-1.09036E+01



 n o d a l   p r i n t   o u t   f o r   t i m e  s t e p   13002                              ( at time 6.4998495E+00 )

 nodal point  x-rot      y-rot       z-rot       x-rot vel   y-rot vel   z-rot vel   x-rot acc   y-rot acc   z-rot acc
    22626  1.51537E-02 8.24700E-03-1.45586E-03 1.00459E-02 6.41929E-03-1.35341E-03 4.63308E-03 1.51326E-03-3.61610E-04



 n o d a l   p r i n t   o u t   f o r   t i m e  s t e p   13202                              ( at time 6.5998395E+00 )

 nodal point  x-disp     y-disp      z-disp      x-vel       y-vel       z-vel      x-accl      y-accl      z-accl      x-coor      y-coor      z-coor
    22626  1.03277E-01 9.25388E-02-1.83846E+01 1.45379E-01 6.44445E-02-1.38251E+00-2.50787E-02-5.15724E-02 8.66269E-01 4.80675E+01-2.19373E+01-1.10461E+01



 n o d a l   p r i n t   o u t   f o r   t i m e  s t e p   13202                              ( at time 6.5998395E+00 )

 nodal point  x-rot      y-rot       z-rot       x-rot vel   y-rot vel   z-rot vel   x-rot acc   y-rot acc   z-rot acc
    22626  1.61788E-02 8.89795E-03-1.59381E-03 1.04445E-02 6.58742E-03-1.41333E-03 3.98606E-03 1.68149E-03-5.99323E-04



 n o d a l   p r i n t   o u t   f o r   t i m e  s t e p   13402                              ( at time 6.6998295E+00 )

 nodal point  x-disp     y-disp      z-disp      x-vel       y-vel       z-vel      x-accl      y-accl      z-accl      x-coor      y-coor      z-coor
    22626  1.17661E-01 9.88379E-02-1.85187E+01 1.42506E-01 6.11192E-02-1.30114E+00-2.87331E-02-3.32564E-02 8.13806E-01 4.80818E+01-2.19310E+01-1.11802E+01



 n o d a l   p r i n t   o u t   f o r   t i m e  s t e p   13402                              ( at time 6.6998295E+00 )

 nodal point  x-rot      y-rot       z-rot       x-rot vel   y-rot vel   z-rot vel   x-rot acc   y-rot acc   z-rot acc
    22626  1.72449E-02 9.56528E-03-1.73735E-03 1.08733E-02 6.75961E-03-1.47202E-03 4.28833E-03 1.72209E-03-5.86901E-04



 n o d a l   p r i n t   o u t   f o r   t i m e  s t e p   13602                              ( at time 6.7998195E+00 )

 nodal point  x-disp     y-disp      z-disp      x-vel       y-vel       z-vel      x-accl      y-accl      z-accl      x-coor      y-coor      z-coor
    22626  1.31829E-01 1.04632E-01-1.86447E+01 1.41816E-01 5.57877E-02-1.21954E+00-6.89740E-03-5.33211E-02 8.16032E-01 4.80960E+01-2.19252E+01-1.13062E+01



 n o d a l   p r i n t   o u t   f o r   t i m e  s t e p   13602                              ( at time 6.7998195E+00 )

 nodal point  x-rot      y-rot       z-rot       x-rot vel   y-rot vel   z-rot vel   x-rot acc   y-rot acc   z-rot acc
    22626  1.83510E-02 1.02494E-02-1.88666E-03 1.12490E-02 6.91762E-03-1.53547E-03 3.75749E-03 1.58024E-03-6.34644E-04



 n o d a l   p r i n t   o u t   f o r   t i m e  s t e p   13802                              ( at time 6.8998095E+00 )

 nodal point  x-disp     y-disp      z-disp      x-vel       y-vel       z-vel      x-accl      y-accl      z-accl      x-coor      y-coor      z-coor
    22626  1.46009E-01 1.09976E-01-1.87628E+01 1.41023E-01 5.09178E-02-1.14592E+00-7.93001E-03-4.87035E-02 7.36348E-01 4.81102E+01-2.19198E+01-1.14243E+01



 n o d a l   p r i n t   o u t   f o r   t i m e  s t e p   13802                              ( at time 6.8998095E+00 )

 nodal point  x-rot      y-rot       z-rot       x-rot vel   y-rot vel   z-rot vel   x-rot acc   y-rot acc   z-rot acc
    22626  1.94933E-02 1.09458E-02-2.04289E-03 1.15933E-02 7.01445E-03-1.58442E-03 3.44316E-03 9.68403E-04-4.89558E-04



 n o d a l   p r i n t   o u t   f o r   t i m e  s t e p   14002                              ( at time 6.9997995E+00 )

 nodal point  x-disp     y-disp      z-disp      x-vel       y-vel       z-vel      x-accl      y-accl      z-accl      x-coor      y-coor      z-coor
    22626  1.60110E-01 1.14988E-01-1.88738E+01 1.40923E-01 4.88592E-02-1.07469E+00-9.98032E-04-2.05885E-02 7.12343E-01 4.81243E+01-2.19148E+01-1.15353E+01



 n o d a l   p r i n t   o u t   f o r   t i m e  s t e p   14002                              ( at time 6.9997995E+00 )

 nodal point  x-rot      y-rot       z-rot       x-rot vel   y-rot vel   z-rot vel   x-rot acc   y-rot acc   z-rot acc
    22626  2.06690E-02 1.16538E-02-2.20532E-03 1.19173E-02 7.16279E-03-1.65892E-03 3.24075E-03 1.48357E-03-7.45050E-04



 n o d a l   p r i n t   o u t   f o r   t i m e  s t e p   14202                              ( at time 7.0997895E+00 )

 nodal point  x-disp     y-disp      z-disp      x-vel       y-vel       z-vel      x-accl      y-accl      z-accl      x-coor      y-coor      z-coor
    22626  1.74180E-01 1.19658E-01-1.89778E+01 1.42114E-01 4.56008E-02-1.00569E+00 1.19121E-02-3.25865E-02 6.90099E-01 4.81384E+01-2.19101E+01-1.16393E+01



 n o d a l   p r i n t   o u t   f o r   t i m e  s t e p   14202                              ( at time 7.0997895E+00 )

 nodal point  x-rot      y-rot       z-rot       x-rot vel   y-rot vel   z-rot vel   x-rot acc   y-rot acc   z-rot acc
    22626  2.18794E-02 1.23746E-02-2.37501E-03 1.22578E-02 7.25006E-03-1.73186E-03 3.40544E-03 8.72808E-04-7.29477E-04



 n o d a l   p r i n t   o u t   f o r   t i m e  s t e p   14402                              ( at time 7.1997794E+00 )

 nodal point  x-disp     y-disp      z-disp      x-vel       y-vel       z-vel      x-accl      y-accl      z-accl      x-coor      y-coor      z-coor
    22626  1.88510E-01 1.23979E-01-1.90750E+01 1.44675E-01 4.05092E-02-9.39325E-01 2.56096E-02-5.09215E-02 6.63691E-01 4.81527E+01-2.19058E+01-1.17365E+01



 n o d a l   p r i n t   o u t   f o r   t i m e  s t e p   14402                              ( at time 7.1997794E+00 )

 nodal point  x-rot      y-rot       z-rot       x-rot vel   y-rot vel   z-rot vel   x-rot acc   y-rot acc   z-rot acc
    22626  2.31208E-02 1.31029E-02-2.55241E-03 1.25650E-02 7.32775E-03-1.78010E-03 3.07149E-03 7.76913E-04-4.82413E-04



 n o d a l   p r i n t   o u t   f o r   t i m e  s t e p   14602                              ( at time 7.2997694E+00 )

 nodal point  x-disp     y-disp      z-disp      x-vel       y-vel       z-vel      x-accl      y-accl      z-accl      x-coor      y-coor      z-coor
    22626  2.03066E-01 1.27983E-01-1.91657E+01 1.46239E-01 3.91151E-02-8.75449E-01 1.56363E-02-1.39426E-02 6.38821E-01 4.81672E+01-2.19018E+01-1.18272E+01



 n o d a l   p r i n t   o u t   f o r   t i m e  s t e p   14602                              ( at time 7.2997694E+00 )

 nodal point  x-rot      y-rot       z-rot       x-rot vel   y-rot vel   z-rot vel   x-rot acc   y-rot acc   z-rot acc
    22626  2.43922E-02 1.38404E-02-2.73501E-03 1.28758E-02 7.42120E-03-1.85201E-03 3.10903E-03 9.34560E-04-7.19172E-04



 n o d a l   p r i n t   o u t   f o r   t i m e  s t e p   14802                              ( at time 7.3997594E+00 )

 nodal point  x-disp     y-disp      z-disp      x-vel       y-vel       z-vel      x-accl      y-accl      z-accl      x-coor      y-coor      z-coor
    22626  2.17854E-01 1.31787E-01-1.92501E+01 1.50070E-01 3.50785E-02-8.12892E-01 3.83139E-02-4.03695E-02 6.25629E-01 4.81820E+01-2.18980E+01-1.19116E+01



 n o d a l   p r i n t   o u t   f o r   t i m e  s t e p   14802                              ( at time 7.3997594E+00 )

 nodal point  x-rot      y-rot       z-rot       x-rot vel   y-rot vel   z-rot vel   x-rot acc   y-rot acc   z-rot acc
    22626  2.56955E-02 1.45862E-02-2.92468E-03 1.31784E-02 7.50934E-03-1.90091E-03 3.02650E-03 8.81572E-04-4.89016E-04



 n o d a l   p r i n t   o u t   f o r   t i m e  s t e p   15002                              ( at time 7.4997494E+00 )

 nodal point  x-disp     y-disp      z-disp      x-vel       y-vel       z-vel      x-accl      y-accl      z-accl      x-coor      y-coor      z-coor
    22626  2.33114E-01 1.35326E-01-1.93283E+01 1.56162E-01 3.49988E-02-7.49712E-01 6.09308E-02-7.97177E-04 6.31865E-01 4.81973E+01-2.18945E+01-1.19898E+01



 n o d a l   p r i n t   o u t   f o r   t i m e  s t e p   15002                              ( at time 7.4997494E+00 )

 nodal point  x-rot      y-rot       z-rot       x-rot vel   y-rot vel   z-rot vel   x-rot acc   y-rot acc   z-rot acc
    22626  2.70288E-02 1.53350E-02-3.11995E-03 1.34943E-02 7.50960E-03-1.96891E-03 3.15839E-03 2.52413E-06-6.80114E-04



 n o d a l   p r i n t   o u t   f o r   t i m e  s t e p   15202                              ( at time 7.5997394E+00 )

 nodal point  x-disp     y-disp      z-disp      x-vel       y-vel       z-vel      x-accl      y-accl      z-accl      x-coor      y-coor      z-coor
    22626  2.48900E-01 1.38626E-01-1.94001E+01 1.59729E-01 3.08962E-02-6.87194E-01 3.56700E-02-4.10302E-02 6.25239E-01 4.82131E+01-2.18912E+01-1.20616E+01



 n o d a l   p r i n t   o u t   f o r   t i m e  s t e p   15202                              ( at time 7.5997394E+00 )

 nodal point  x-rot      y-rot       z-rot       x-rot vel   y-rot vel   z-rot vel   x-rot acc   y-rot acc   z-rot acc
    22626  2.83936E-02 1.60887E-02-3.31957E-03 1.38179E-02 7.56464E-03-2.01716E-03 3.23662E-03 5.50532E-04-4.82541E-04



 n o d a l   p r i n t   o u t   f o r   t i m e  s t e p   15402                              ( at time 7.6997294E+00 )

 nodal point  x-disp     y-disp      z-disp      x-vel       y-vel       z-vel      x-accl      y-accl      z-accl      x-coor      y-coor      z-coor
    22626  2.65243E-01 1.41706E-01-1.94655E+01 1.67084E-01 3.13549E-02-6.22143E-01 7.35648E-02 4.58706E-03 6.50575E-01 4.82294E+01-2.18881E+01-1.21270E+01



 n o d a l   p r i n t   o u t   f o r   t i m e  s t e p   15402                              ( at time 7.6997294E+00 )

 nodal point  x-rot      y-rot       z-rot       x-rot vel   y-rot vel   z-rot vel   x-rot acc   y-rot acc   z-rot acc
    22626  2.97894E-02 1.68485E-02-3.52565E-03 1.41461E-02 7.61987E-03-2.08054E-03 3.28283E-03 5.52274E-04-6.33897E-04



 n o d a l   p r i n t   o u t   f o r   t i m e  s t e p   15602                              ( at time 7.7997194E+00 )

 nodal point  x-disp     y-disp      z-disp      x-vel       y-vel       z-vel      x-accl      y-accl      z-accl      x-coor      y-coor      z-coor
    22626  2.82384E-01 1.44497E-01-1.95244E+01 1.76395E-01 2.58914E-02-5.54253E-01 9.31101E-02-5.46402E-02 6.78973E-01 4.82466E+01-2.18853E+01-1.21859E+01



 n o d a l   p r i n t   o u t   f o r   t i m e  s t e p   15602                              ( at time 7.7997194E+00 )

 nodal point  x-rot      y-rot       z-rot       x-rot vel   y-rot vel   z-rot vel   x-rot acc   y-rot acc   z-rot acc
    22626  3.12179E-02 1.76127E-02-3.73393E-03 1.44176E-02 7.66364E-03-2.10044E-03 2.71445E-03 4.37798E-04-1.98981E-04



 n o d a l   p r i n t   o u t   f o r   t i m e  s t e p   15802                              ( at time 7.8997094E+00 )

 nodal point  x-disp     y-disp      z-disp      x-vel       y-vel       z-vel      x-accl      y-accl      z-accl      x-coor      y-coor      z-coor
    22626  3.00383E-01 1.47417E-01-1.95765E+01 1.84380E-01 3.06468E-02-4.89096E-01 7.98661E-02 4.75585E-02 6.51638E-01 4.82646E+01-2.18824E+01-1.22380E+01



 n o d a l   p r i n t   o u t   f o r   t i m e  s t e p   15802                              ( at time 7.8997094E+00 )

 nodal point  x-rot      y-rot       z-rot       x-rot vel   y-rot vel   z-rot vel   x-rot acc   y-rot acc   z-rot acc
    22626  3.26844E-02 1.83804E-02-3.94960E-03 1.48689E-02 7.73136E-03-2.15848E-03 4.51391E-03 6.77284E-04-5.80515E-04



 n o d a l   p r i n t   o u t   f o r   t i m e  s t e p   16002                              ( at time 7.9996994E+00 )

 nodal point  x-disp     y-disp      z-disp      x-vel       y-vel       z-vel      x-accl      y-accl      z-accl      x-coor      y-coor      z-coor
    22626  3.19161E-01 1.50319E-01-1.96223E+01 1.93984E-01 2.36769E-02-4.25902E-01 9.60499E-02-6.97054E-02 6.31997E-01 4.82833E+01-2.18795E+01-1.22838E+01



 n o d a l   p r i n t   o u t   f o r   t i m e  s t e p   16002                              ( at time 7.9996994E+00 )

 nodal point  x-rot      y-rot       z-rot       x-rot vel   y-rot vel   z-rot vel   x-rot acc   y-rot acc   z-rot acc
    22626  3.41829E-02 1.91557E-02-4.16679E-03 1.50603E-02 7.77820E-03-2.18091E-03 1.91417E-03 4.68426E-04-2.24282E-04



 n o d a l   p r i n t   o u t   f o r   t i m e  s t e p   16202                              ( at time 8.0996894E+00 )

 nodal point  x-disp     y-disp      z-disp      x-vel       y-vel       z-vel      x-accl      y-accl      z-accl      x-coor      y-coor      z-coor
    22626  3.39087E-01 1.52991E-01-1.96614E+01 2.03588E-01 3.03368E-02-3.59947E-01 9.60422E-02 6.66052E-02 6.59620E-01 4.83033E+01-2.18768E+01-1.23229E+01



 n o d a l   p r i n t   o u t   f o r   t i m e  s t e p   16202                              ( at time 8.0996894E+00 )

 nodal point  x-rot      y-rot       z-rot       x-rot vel   y-rot vel   z-rot vel   x-rot acc   y-rot acc   z-rot acc
    22626  3.57130E-02 1.99384E-02-4.38934E-03 1.55627E-02 7.85310E-03-2.28590E-03 5.02463E-03 7.49092E-04-1.05001E-03



 n o d a l   p r i n t   o u t   f o r   t i m e  s t e p   16402                              ( at time 8.1996794E+00 )

 nodal point  x-disp     y-disp      z-disp      x-vel       y-vel       z-vel      x-accl      y-accl      z-accl      x-coor      y-coor      z-coor
    22626  3.60048E-01 1.56448E-01-1.96941E+01 2.17024E-01 3.58526E-02-2.96258E-01 1.34379E-01 5.51636E-02 6.36949E-01 4.83242E+01-2.18733E+01-1.23556E+01



 n o d a l   p r i n t   o u t   f o r   t i m e  s t e p   16402                              ( at time 8.1996794E+00 )

 nodal point  x-rot      y-rot       z-rot       x-rot vel   y-rot vel   z-rot vel   x-rot acc   y-rot acc   z-rot acc
    22626  3.72853E-02 2.07291E-02-4.61752E-03 1.58033E-02 7.96010E-03-2.31780E-03 2.40645E-03 1.07011E-03-3.18996E-04



 n o d a l   p r i n t   o u t   f o r   t i m e  s t e p   16602                              ( at time 8.2996694E+00 )

 nodal point  x-disp     y-disp      z-disp      x-vel       y-vel       z-vel      x-accl      y-accl      z-accl      x-coor      y-coor      z-coor
    22626  3.82496E-01 1.59337E-01-1.97206E+01 2.30416E-01 3.10997E-02-2.30573E-01 1.33933E-01-4.75331E-02 6.56922E-01 4.83467E+01-2.18705E+01-1.23821E+01



 n o d a l   p r i n t   o u t   f o r   t i m e  s t e p   16602                              ( at time 8.2996694E+00 )

 nodal point  x-rot      y-rot       z-rot       x-rot vel   y-rot vel   z-rot vel   x-rot acc   y-rot acc   z-rot acc
    22626  3.88764E-02 2.15306E-02-4.84446E-03 1.60991E-02 8.07962E-03-2.31520E-03 2.95807E-03 1.19531E-03 2.59469E-05



 n o d a l   p r i n t   o u t   f o r   t i m e  s t e p   16802                              ( at time 8.3996594E+00 )

 nodal point  x-disp     y-disp      z-disp      x-vel       y-vel       z-vel      x-accl      y-accl      z-accl      x-coor      y-coor      z-coor
    22626  4.06037E-01 1.63310E-01-1.97409E+01 2.42162E-01 4.37186E-02-1.78372E-01 1.17470E-01 1.26201E-01 5.22059E-01 4.83702E+01-2.18665E+01-1.24024E+01



 n o d a l   p r i n t   o u t   f o r   t i m e  s t e p   16802                              ( at time 8.3996594E+00 )

 nodal point  x-rot      y-rot       z-rot       x-rot vel   y-rot vel   z-rot vel   x-rot acc   y-rot acc   z-rot acc
    22626  4.05112E-02 2.23430E-02-5.08105E-03 1.64736E-02 8.17815E-03-2.39072E-03 3.74510E-03 9.85346E-04-7.55193E-04



 n o d a l   p r i n t   o u t   f o r   t i m e  s t e p   17002                              ( at time 8.4996494E+00 )

 nodal point  x-disp     y-disp      z-disp      x-vel       y-vel       z-vel      x-accl      y-accl      z-accl      x-coor      y-coor      z-coor
    22626  4.31108E-01 1.67156E-01-1.97556E+01 2.58490E-01 3.54105E-02-1.12961E-01 1.63301E-01-8.30891E-02 6.54177E-01 4.83953E+01-2.18626E+01-1.24171E+01



 n o d a l   p r i n t   o u t   f o r   t i m e  s t e p   17002                              ( at time 8.4996494E+00 )

 nodal point  x-rot      y-rot       z-rot       x-rot vel   y-rot vel   z-rot vel   x-rot acc   y-rot acc   z-rot acc
    22626  4.21639E-02 2.31735E-02-5.31946E-03 1.66283E-02 8.37627E-03-2.40302E-03 1.54766E-03 1.98140E-03-1.23012E-04



 n o d a l   p r i n t   o u t   f o r   t i m e  s t e p   17202                              ( at time 8.5996394E+00 )

 nodal point  x-disp     y-disp      z-disp      x-vel       y-vel       z-vel      x-accl      y-accl      z-accl      x-coor      y-coor      z-coor
    22626  4.57728E-01 1.71271E-01-1.97643E+01 2.70388E-01 5.02193E-02-6.26458E-02 1.18987E-01 1.48103E-01 5.03204E-01 4.84219E+01-2.18585E+01-1.24258E+01



 n o d a l   p r i n t   o u t   f o r   t i m e  s t e p   17202                              ( at time 8.5996394E+00 )

 nodal point  x-rot      y-rot       z-rot       x-rot vel   y-rot vel   z-rot vel   x-rot acc   y-rot acc   z-rot acc
    22626  4.38485E-02 2.40161E-02-5.56190E-03 1.71116E-02 8.47560E-03-2.49817E-03 4.83359E-03 9.93449E-04-9.51656E-04



 n o d a l   p r i n t   o u t   f o r   t i m e  s t e p   17402                              ( at time 8.6996293E+00 )

 nodal point  x-disp     y-disp      z-disp      x-vel       y-vel       z-vel      x-accl      y-accl      z-accl      x-coor      y-coor      z-coor
    22626  4.85520E-01 1.76153E-01-1.97682E+01 2.86686E-01 4.26589E-02-1.44428E-02 1.62995E-01-7.56102E-02 4.82074E-01 4.84497E+01-2.18536E+01-1.24297E+01



 n o d a l   p r i n t   o u t   f o r   t i m e  s t e p   17402                              ( at time 8.6996293E+00 )

 nodal point  x-rot      y-rot       z-rot       x-rot vel   y-rot vel   z-rot vel   x-rot acc   y-rot acc   z-rot acc
    22626  4.55629E-02 2.48762E-02-5.81102E-03 1.71385E-02 8.70198E-03-2.47666E-03 2.68488E-04 2.26400E-03 2.15160E-04



 n o d a l   p r i n t   o u t   f o r   t i m e  s t e p   17602                              ( at time 8.7996193E+00 )

 nodal point  x-disp     y-disp      z-disp      x-vel       y-vel       z-vel      x-accl      y-accl      z-accl      x-coor      y-coor      z-coor
    22626  5.14915E-01 1.80534E-01-1.97669E+01 3.01120E-01 4.97148E-02 3.49806E-02 1.44353E-01 7.05654E-02 4.94284E-01 4.84791E+01-2.18493E+01-1.24284E+01



 n o d a l   p r i n t   o u t   f o r   t i m e  s t e p   17602                              ( at time 8.7996193E+00 )

 nodal point  x-rot      y-rot       z-rot       x-rot vel   y-rot vel   z-rot vel   x-rot acc   y-rot acc   z-rot acc
    22626  4.72882E-02 2.57543E-02-6.06079E-03 1.74910E-02 8.81988E-03-2.52729E-03 3.52564E-03 1.17913E-03-5.06421E-04



 n o d a l   p r i n t   o u t   f o r   t i m e  s t e p   17802                              ( at time 8.8996093E+00 )

 nodal point  x-disp     y-disp      z-disp      x-vel       y-vel       z-vel      x-accl      y-accl      z-accl      x-coor      y-coor      z-coor
    22626  5.45468E-01 1.85797E-01-1.97616E+01 3.13297E-01 5.36082E-02 7.53042E-02 1.21789E-01 3.89383E-02 4.03276E-01 4.85096E+01-2.18440E+01-1.24230E+01



 n o d a l   p r i n t   o u t   f o r   t i m e  s t e p   17802                              ( at time 8.8996093E+00 )

 nodal point  x-rot      y-rot       z-rot       x-rot vel   y-rot vel   z-rot vel   x-rot acc   y-rot acc   z-rot acc
    22626  4.90518E-02 2.66424E-02-6.31777E-03 1.76757E-02 8.96610E-03-2.60702E-03 1.84732E-03 1.46230E-03-7.97379E-04



 n o d a l   p r i n t   o u t   f o r   t i m e  s t e p   18002                              ( at time 8.9995993E+00 )

 nodal point  x-disp     y-disp      z-disp      x-vel       y-vel       z-vel      x-accl      y-accl      z-accl      x-coor      y-coor      z-coor
    22626  5.77612E-01 1.90878E-01-1.97519E+01 3.26831E-01 4.90665E-02 1.11965E-01 1.35347E-01-4.54216E-02 3.66648E-01 4.85418E+01-2.18389E+01-1.24134E+01



 n o d a l   p r i n t   o u t   f o r   t i m e  s t e p   18002                              ( at time 8.9995993E+00 )

 nodal point  x-rot      y-rot       z-rot       x-rot vel   y-rot vel   z-rot vel   x-rot acc   y-rot acc   z-rot acc
    22626  5.08237E-02 2.75500E-02-6.57677E-03 1.78016E-02 9.14758E-03-2.58713E-03 1.25916E-03 1.81505E-03 1.98988E-04



 n o d a l   p r i n t   o u t   f o r   t i m e  s t e p   18202                              ( at time 9.0995893E+00 )

 nodal point  x-disp     y-disp      z-disp      x-vel       y-vel       z-vel      x-accl      y-accl      z-accl      x-coor      y-coor      z-coor
    22626  6.10696E-01 1.96037E-01-1.97391E+01 3.36411E-01 5.51328E-02 1.45434E-01 9.58075E-02 6.06687E-02 3.34719E-01 4.85749E+01-2.18338E+01-1.24006E+01



 n o d a l   p r i n t   o u t   f o r   t i m e  s t e p   18202                              ( at time 9.0995893E+00 )

 nodal point  x-rot      y-rot       z-rot       x-rot vel   y-rot vel   z-rot vel   x-rot acc   y-rot acc   z-rot acc
    22626  5.26180E-02 2.84696E-02-6.83729E-03 1.80709E-02 9.23959E-03-2.64782E-03 2.69340E-03 9.20119E-04-6.07016E-04



 n o d a l   p r i n t   o u t   f o r   t i m e  s t e p   18402                              ( at time 9.1995793E+00 )

 nodal point  x-disp     y-disp      z-disp      x-vel       y-vel       z-vel      x-accl      y-accl      z-accl      x-coor      y-coor      z-coor
    22626  6.45066E-01 2.01584E-01-1.97230E+01 3.51524E-01 5.57367E-02 1.76675E-01 1.51152E-01 6.03994E-03 3.12442E-01 4.86092E+01-2.18282E+01-1.23845E+01



 n o d a l   p r i n t   o u t   f o r   t i m e  s t e p   18402                              ( at time 9.1995793E+00 )

 nodal point  x-rot      y-rot       z-rot       x-rot vel   y-rot vel   z-rot vel   x-rot acc   y-rot acc   z-rot acc
    22626  5.44299E-02 2.94018E-02-7.10435E-03 1.81992E-02 9.41624E-03-2.65907E-03 1.28232E-03 1.76677E-03-1.12513E-04



 n o d a l   p r i n t   o u t   f o r   t i m e  s t e p   18602                              ( at time 9.2995693E+00 )

 nodal point  x-disp     y-disp      z-disp      x-vel       y-vel       z-vel      x-accl      y-accl      z-accl      x-coor      y-coor      z-coor
    22626  6.80392E-01 2.07066E-01-1.97043E+01 3.56107E-01 5.25378E-02 1.95505E-01 4.58278E-02-3.19917E-02 1.88321E-01 4.86446E+01-2.18227E+01-1.23658E+01



 n o d a l   p r i n t   o u t   f o r   t i m e  s t e p   18602                              ( at time 9.2995693E+00 )

 nodal point  x-rot      y-rot       z-rot       x-rot vel   y-rot vel   z-rot vel   x-rot acc   y-rot acc   z-rot acc
    22626  5.62560E-02 3.03477E-02-7.36843E-03 1.83106E-02 9.47011E-03-2.63533E-03 1.11483E-03 5.38722E-04 2.37472E-04



 n o d a l   p r i n t   o u t   f o r   t i m e  s t e p   18802                              ( at time 9.3995593E+00 )

 nodal point  x-disp     y-disp      z-disp      x-vel       y-vel       z-vel      x-accl      y-accl      z-accl      x-coor      y-coor      z-coor
    22626  7.16459E-01 2.12504E-01-1.96834E+01 3.64655E-01 5.71705E-02 2.22924E-01 8.54948E-02 4.63317E-02 2.74218E-01 4.86806E+01-2.18173E+01-1.23449E+01



 n o d a l   p r i n t   o u t   f o r   t i m e  s t e p   18802                              ( at time 9.3995593E+00 )

 nodal point  x-rot      y-rot       z-rot       x-rot vel   y-rot vel   z-rot vel   x-rot acc   y-rot acc   z-rot acc
    22626  5.80926E-02 3.12991E-02-7.63828E-03 1.84404E-02 9.60255E-03-2.73896E-03 1.29771E-03 1.32457E-03-1.03639E-03



 n o d a l   p r i n t   o u t   f o r   t i m e  s t e p   19002                              ( at time 9.4995493E+00 )

 nodal point  x-disp     y-disp      z-disp      x-vel       y-vel       z-vel      x-accl      y-accl      z-accl      x-coor      y-coor      z-coor
    22626  7.53444E-01 2.18297E-01-1.96604E+01 3.73302E-01 5.64911E-02 2.34651E-01 8.64784E-02-6.79502E-03 1.17284E-01 4.87176E+01-2.18115E+01-1.23219E+01



 n o d a l   p r i n t   o u t   f o r   t i m e  s t e p   19002                              ( at time 9.4995493E+00 )

 nodal point  x-rot      y-rot       z-rot       x-rot vel   y-rot vel   z-rot vel   x-rot acc   y-rot acc   z-rot acc
    22626  5.99480E-02 3.22613E-02-7.91040E-03 1.86216E-02 9.66909E-03-2.69257E-03 1.81278E-03 6.65469E-04 4.63929E-04



 n o d a l   p r i n t   o u t   f o r   t i m e  s t e p   19202                              ( at time 9.5995393E+00 )

 nodal point  x-disp     y-disp      z-disp      x-vel       y-vel       z-vel      x-accl      y-accl      z-accl      x-coor      y-coor      z-coor
    22626  7.90978E-01 2.23700E-01-1.96360E+01 3.78750E-01 5.24204E-02 2.55243E-01 5.44812E-02-4.07111E-02 2.05935E-01 4.87552E+01-2.18061E+01-1.22975E+01



 n o d a l   p r i n t   o u t   f o r   t i m e  s t e p   19202                              ( at time 9.5995393E+00 )

 nodal point  x-rot      y-rot       z-rot       x-rot vel   y-rot vel   z-rot vel   x-rot acc   y-rot acc   z-rot acc
    22626  6.18083E-02 3.32306E-02-8.18218E-03 1.85920E-02 9.72657E-03-2.72909E-03-2.96896E-04 5.74800E-04-3.65277E-04



 n o d a l   p r i n t   o u t   f o r   t i m e  s t e p   19402                              ( at time 9.6995293E+00 )

 nodal point  x-disp     y-disp      z-disp      x-vel       y-vel       z-vel      x-accl      y-accl      z-accl      x-coor      y-coor      z-coor
    22626  8.29204E-01 2.29442E-01-1.96097E+01 3.85060E-01 6.09209E-02 2.68863E-01 6.31095E-02 8.50139E-02 1.36210E-01 4.87934E+01-2.18003E+01-1.22712E+01



 n o d a l   p r i n t   o u t   f o r   t i m e  s t e p   19402                              ( at time 9.6995293E+00 )

 nodal point  x-rot      y-rot       z-rot       x-rot vel   y-rot vel   z-rot vel   x-rot acc   y-rot acc   z-rot acc
    22626  6.36777E-02 3.42017E-02-8.46075E-03 1.88407E-02 9.75705E-03-2.77040E-03 2.48726E-03 3.04806E-04-4.13125E-04



 n o d a l   p r i n t   o u t   f o r   t i m e  s t e p   19602                              ( at time 9.7995193E+00 )

 nodal point  x-disp     y-disp      z-disp      x-vel       y-vel       z-vel      x-accl      y-accl      z-accl      x-coor      y-coor      z-coor
    22626  8.67829E-01 2.35199E-01-1.95824E+01 3.88113E-01 5.49656E-02 2.81163E-01 3.05314E-02-5.95593E-02 1.23018E-01 4.88320E+01-2.17946E+01-1.22439E+01



 n o d a l   p r i n t   o u t   f o r   t i m e  s t e p   19602                              ( at time 9.7995193E+00 )

 nodal point  x-rot      y-rot       z-rot       x-rot vel   y-rot vel   z-rot vel   x-rot acc   y-rot acc   z-rot acc
    22626  6.55640E-02 3.51820E-02-8.73704E-03 1.87792E-02 9.85190E-03-2.77597E-03-6.15182E-04 9.48629E-04-5.57383E-05



 n o d a l   p r i n t   o u t   f o r   t i m e  s t e p   19802                              ( at time 9.8995093E+00 )

 nodal point  x-disp     y-disp      z-disp      x-vel       y-vel       z-vel      x-accl      y-accl      z-accl      x-coor      y-coor      z-coor
    22626  9.07086E-01 2.40648E-01-1.95536E+01 3.95486E-01 5.47413E-02 2.91546E-01 7.37411E-02-2.24281E-03 1.03839E-01 4.88713E+01-2.17891E+01-1.22151E+01



 n o d a l   p r i n t   o u t   f o r   t i m e  s t e p   19802                              ( at time 9.8995093E+00 )

 nodal point  x-rot      y-rot       z-rot       x-rot vel   y-rot vel   z-rot vel   x-rot acc   y-rot acc   z-rot acc
    22626  6.74418E-02 3.61663E-02-9.01904E-03 1.88845E-02 9.81434E-03-2.82885E-03 1.05338E-03-3.75668E-04-5.28849E-04



 n o d a l   p r i n t   o u t   f o r   t i m e  s t e p   20003                              ( at time 9.9999992E+00 )

 nodal point  x-disp     y-disp      z-disp      x-vel       y-vel       z-vel      x-accl      y-accl      z-accl      x-coor      y-coor      z-coor
[...]
    22626  3.04048E-01 1.54261E-01-7.53211E-02 1.95212E-02 8.41973E-03-6.06145E-03 3.59207E-04-2.19570E-04 1.28916E-04



 n o d a l   p r i n t   o u t   f o r   t i m e  s t e p   45205                              ( at time 2.2599738E+01 )

 nodal point  x-disp     y-disp      z-disp      x-vel       y-vel       z-vel      x-accl      y-accl      z-accl      x-coor      y-coor      z-coor
    22626  5.42826E+00-2.73890E-03-1.38456E+01 3.32985E-01-4.73677E-02 4.78908E-01-2.80793E-03 5.92353E-03-1.28668E-02 5.33924E+01-2.20325E+01-6.50705E+00



 n o d a l   p r i n t   o u t   f o r   t i m e  s t e p   45205                              ( at time 2.2599738E+01 )

 nodal point  x-rot      y-rot       z-rot       x-rot vel   y-rot vel   z-rot vel   x-rot acc   y-rot acc   z-rot acc
    22626  3.06002E-01 1.55102E-01-7.59270E-02 1.95567E-02 8.39609E-03-6.05886E-03 3.54550E-04-2.36335E-04 2.58699E-05



 n o d a l   p r i n t   o u t   f o r   t i m e  s t e p   45405                              ( at time 2.2699728E+01 )

 nodal point  x-disp     y-disp      z-disp      x-vel       y-vel       z-vel      x-accl      y-accl      z-accl      x-coor      y-coor      z-coor
    22626  5.46152E+00-7.46790E-03-1.37977E+01 3.32507E-01-4.70327E-02 4.77532E-01-4.77784E-03 3.35049E-03-1.37607E-02 5.34257E+01-2.20373E+01-6.45922E+00



 n o d a l   p r i n t   o u t   f o r   t i m e  s t e p   45405                              ( at time 2.2699728E+01 )

 nodal point  x-rot      y-rot       z-rot       x-rot vel   y-rot vel   z-rot vel   x-rot acc   y-rot acc   z-rot acc
    22626  3.07959E-01 1.55940E-01-7.65325E-02 1.95975E-02 8.36936E-03-6.05551E-03 4.08095E-04-2.67356E-04 3.35686E-05



 n o d a l   p r i n t   o u t   f o r   t i m e  s t e p   45605                              ( at time 2.2799718E+01 )

 nodal point  x-disp     y-disp      z-disp      x-vel       y-vel       z-vel      x-accl      y-accl      z-accl      x-coor      y-coor      z-coor
    22626  5.49474E+00-1.21512E-02-1.37500E+01 3.31952E-01-4.65446E-02 4.76122E-01-5.55208E-03 4.88162E-03-1.41046E-02 5.34589E+01-2.20419E+01-6.41154E+00



 n o d a l   p r i n t   o u t   f o r   t i m e  s t e p   45605                              ( at time 2.2799718E+01 )

 nodal point  x-rot      y-rot       z-rot       x-rot vel   y-rot vel   z-rot vel   x-rot acc   y-rot acc   z-rot acc
    22626  3.09921E-01 1.56776E-01-7.71374E-02 1.96374E-02 8.34859E-03-6.04627E-03 3.99462E-04-2.07741E-04 9.23677E-05



 n o d a l   p r i n t   o u t   f o r   t i m e  s t e p   45805                              ( at time 2.2899708E+01 )

 nodal point  x-disp     y-disp      z-disp      x-vel       y-vel       z-vel      x-accl      y-accl      z-accl      x-coor      y-coor      z-coor
    22626  5.52793E+00-1.67895E-02-1.37025E+01 3.31503E-01-4.62504E-02 4.74308E-01-4.48634E-03 2.94260E-03-1.81382E-02 5.34921E+01-2.20466E+01-6.36402E+00



 n o d a l   p r i n t   o u t   f o r   t i m e  s t e p   45805                              ( at time 2.2899708E+01 )

 nodal point  x-rot      y-rot       z-rot       x-rot vel   y-rot vel   z-rot vel   x-rot acc   y-rot acc   z-rot acc
    22626  3.11887E-01 1.57609E-01-7.77414E-02 1.96804E-02 8.32532E-03-6.03979E-03 4.29704E-04-2.32689E-04 6.47993E-05



 n o d a l   p r i n t   o u t   f o r   t i m e  s t e p   46005                              ( at time 2.2999698E+01 )

 nodal point  x-disp     y-disp      z-disp      x-vel       y-vel       z-vel      x-accl      y-accl      z-accl      x-coor      y-coor      z-coor
    22626  5.56105E+00-2.14284E-02-1.36552E+01 3.31108E-01-4.63114E-02 4.72869E-01-3.95394E-03-6.10668E-04-1.43932E-02 5.35252E+01-2.20512E+01-6.31667E+00



 n o d a l   p r i n t   o u t   f o r   t i m e  s t e p   46005                              ( at time 2.2999698E+01 )

 nodal point  x-rot      y-rot       z-rot       x-rot vel   y-rot vel   z-rot vel   x-rot acc   y-rot acc   z-rot acc
    22626  3.13857E-01 1.58441E-01-7.83450E-02 1.97279E-02 8.30380E-03-6.03663E-03 4.75335E-04-2.15286E-04 3.16073E-05



 n o d a l   p r i n t   o u t   f o r   t i m e  s t e p   46205                              ( at time 2.3099688E+01 )

 nodal point  x-disp     y-disp      z-disp      x-vel       y-vel       z-vel      x-accl      y-accl      z-accl      x-coor      y-coor      z-coor
    22626  5.59415E+00-2.60639E-02-1.36079E+01 3.30866E-01-4.63414E-02 4.71338E-01-2.41873E-03-2.99546E-04-1.53094E-02 5.35583E+01-2.20559E+01-6.26944E+00



 n o d a l   p r i n t   o u t   f o r   t i m e  s t e p   46205                              ( at time 2.3099688E+01 )

 nodal point  x-rot      y-rot       z-rot       x-rot vel   y-rot vel   z-rot vel   x-rot acc   y-rot acc   z-rot acc
    22626  3.15832E-01 1.59270E-01-7.89478E-02 1.97636E-02 8.27888E-03-6.02316E-03 3.56960E-04-2.49175E-04 1.34698E-04



 n o d a l   p r i n t   o u t   f o r   t i m e  s t e p   46405                              ( at time 2.3199678E+01 )

 nodal point  x-disp     y-disp      z-disp      x-vel       y-vel       z-vel      x-accl      y-accl      z-accl      x-coor      y-coor      z-coor
    22626  5.62721E+00-3.07149E-02-1.35609E+01 3.30328E-01-4.71615E-02 4.69959E-01-5.38518E-03-8.20138E-03-1.37965E-02 5.35914E+01-2.20605E+01-6.22240E+00



 n o d a l   p r i n t   o u t   f o r   t i m e  s t e p   46405                              ( at time 2.3199678E+01 )

 nodal point  x-rot      y-rot       z-rot       x-rot vel   y-rot vel   z-rot vel   x-rot acc   y-rot acc   z-rot acc
    22626  3.17810E-01 1.60097E-01-7.95495E-02 1.98073E-02 8.26033E-03-6.01270E-03 4.36830E-04-1.85564E-04 1.04700E-04



 n o d a l   p r i n t   o u t   f o r   t i m e  s t e p   46605                              ( at time 2.3299668E+01 )

 nodal point  x-disp     y-disp      z-disp      x-vel       y-vel       z-vel      x-accl      y-accl      z-accl      x-coor      y-coor      z-coor
    22626  5.66023E+00-3.54513E-02-1.35140E+01 3.29932E-01-4.76537E-02 4.68544E-01-3.96057E-03-4.92340E-03-1.41526E-02 5.36244E+01-2.20652E+01-6.17548E+00



 n o d a l   p r i n t   o u t   f o r   t i m e  s t e p   46605                              ( at time 2.3299668E+01 )

 nodal point  x-rot      y-rot       z-rot       x-rot vel   y-rot vel   z-rot vel   x-rot acc   y-rot acc   z-rot acc
    22626  3.19793E-01 1.60922E-01-8.01504E-02 1.98529E-02 8.23601E-03-6.00919E-03 4.55933E-04-2.43232E-04 3.50169E-05



 n o d a l   p r i n t   o u t   f o r   t i m e  s t e p   46805                              ( at time 2.3399658E+01 )

 nodal point  x-disp     y-disp      z-disp      x-vel       y-vel       z-vel      x-accl      y-accl      z-accl      x-coor      y-coor      z-coor
    22626  5.69318E+00-4.02836E-02-1.34672E+01 3.29268E-01-4.86772E-02 4.66839E-01-6.63371E-03-1.02357E-02-1.70458E-02 5.36574E+01-2.20701E+01-6.12872E+00



 n o d a l   p r i n t   o u t   f o r   t i m e  s t e p   46805                              ( at time 2.3399658E+01 )

 nodal point  x-rot      y-rot       z-rot       x-rot vel   y-rot vel   z-rot vel   x-rot acc   y-rot acc   z-rot acc
    22626  3.21780E-01 1.61744E-01-8.07505E-02 1.98888E-02 8.21814E-03-5.99865E-03 3.58834E-04-1.78700E-04 1.05403E-04



 n o d a l   p r i n t   o u t   f o r   t i m e  s t e p   47005                              ( at time 2.3499648E+01 )

 nodal point  x-disp     y-disp      z-disp      x-vel       y-vel       z-vel      x-accl      y-accl      z-accl      x-coor      y-coor      z-coor
    22626  5.72609E+00-4.52137E-02-1.34206E+01 3.28881E-01-5.02971E-02 4.65490E-01-3.87108E-03-1.61998E-02-1.34922E-02 5.36903E+01-2.20750E+01-6.08211E+00



 n o d a l   p r i n t   o u t   f o r   t i m e  s t e p   47005                              ( at time 2.3499648E+01 )

 nodal point  x-rot      y-rot       z-rot       x-rot vel   y-rot vel   z-rot vel   x-rot acc   y-rot acc   z-rot acc
    22626  3.23770E-01 1.62565E-01-8.13498E-02 1.99250E-02 8.20171E-03-5.98658E-03 3.62262E-04-1.64328E-04 1.20790E-04



 n o d a l   p r i n t   o u t   f o r   t i m e  s t e p   47205                              ( at time 2.3599638E+01 )

 nodal point  x-disp     y-disp      z-disp      x-vel       y-vel       z-vel      x-accl      y-accl      z-accl      x-coor      y-coor      z-coor
    22626  5.75892E+00-5.03057E-02-1.33742E+01 3.28022E-01-5.14988E-02 4.63715E-01-8.58819E-03-1.20184E-02-1.77558E-02 5.37231E+01-2.20801E+01-6.03566E+00



 n o d a l   p r i n t   o u t   f o r   t i m e  s t e p   47205                              ( at time 2.3599638E+01 )

 nodal point  x-rot      y-rot       z-rot       x-rot vel   y-rot vel   z-rot vel   x-rot acc   y-rot acc   z-rot acc
    22626  3.25765E-01 1.63384E-01-8.19482E-02 1.99696E-02 8.18696E-03-5.98401E-03 4.45706E-04-1.47491E-04 2.56934E-05



 n o d a l   p r i n t   o u t   f o r   t i m e  s t e p   47405                              ( at time 2.3699628E+01 )

 nodal point  x-disp     y-disp      z-disp      x-vel       y-vel       z-vel      x-accl      y-accl      z-accl      x-coor      y-coor      z-coor
    22626  5.79167E+00-5.55575E-02-1.33278E+01 3.27198E-01-5.34310E-02 4.62228E-01-8.24795E-03-1.93241E-02-1.48739E-02 5.37559E+01-2.20853E+01-5.98935E+00



 n o d a l   p r i n t   o u t   f o r   t i m e  s t e p   47405                              ( at time 2.3699628E+01 )

 nodal point  x-rot      y-rot       z-rot       x-rot vel   y-rot vel   z-rot vel   x-rot acc   y-rot acc   z-rot acc
    22626  3.27763E-01 1.64203E-01-8.25462E-02 2.00015E-02 8.17303E-03-5.97775E-03 3.19082E-04-1.39301E-04 6.25534E-05



 n o d a l   p r i n t   o u t   f o r   t i m e  s t e p   47605                              ( at time 2.3799618E+01 )

 nodal point  x-disp     y-disp      z-disp      x-vel       y-vel       z-vel      x-accl      y-accl      z-accl      x-coor      y-coor      z-coor
    22626  5.82436E+00-6.09631E-02-1.32817E+01 3.26443E-01-5.49683E-02 4.61372E-01-7.55036E-03-1.53745E-02-8.55928E-03 5.37885E+01-2.20908E+01-5.94317E+00



 n o d a l   p r i n t   o u t   f o r   t i m e  s t e p   47605                              ( at time 2.3799618E+01 )

 nodal point  x-rot      y-rot       z-rot       x-rot vel   y-rot vel   z-rot vel   x-rot acc   y-rot acc   z-rot acc
    22626  3.29765E-01 1.65019E-01-8.31434E-02 2.00343E-02 8.16376E-03-5.96879E-03 3.28383E-04-9.26768E-05 8.96637E-05



 n o d a l   p r i n t   o u t   f o r   t i m e  s t e p   47805                              ( at time 2.3899608E+01 )

 nodal point  x-disp     y-disp      z-disp      x-vel       y-vel       z-vel      x-accl      y-accl      z-accl      x-coor      y-coor      z-coor
    22626  5.85696E+00-6.65606E-02-1.32356E+01 3.25686E-01-5.65534E-02 4.60101E-01-7.56720E-03-1.58526E-02-1.27056E-02 5.38211E+01-2.20963E+01-5.89713E+00



 n o d a l   p r i n t   o u t   f o r   t i m e  s t e p   47805                              ( at time 2.3899608E+01 )

 nodal point  x-rot      y-rot       z-rot       x-rot vel   y-rot vel   z-rot vel   x-rot acc   y-rot acc   z-rot acc
    22626  3.31769E-01 1.65835E-01-8.37394E-02 2.00638E-02 8.14810E-03-5.96321E-03 2.95238E-04-1.56644E-04 5.58239E-05



 n o d a l   p r i n t   o u t   f o r   t i m e  s t e p   48005                              ( at time 2.3999598E+01 )

 nodal point  x-disp     y-disp      z-disp      x-vel       y-vel       z-vel      x-accl      y-accl      z-accl      x-coor      y-coor      z-coor
    22626  5.88949E+00-7.23341E-02-1.31897E+01 3.24900E-01-5.87655E-02 4.59227E-01-7.86064E-03-2.21237E-02-8.74646E-03 5.38537E+01-2.21021E+01-5.85115E+00



 n o d a l   p r i n t   o u t   f o r   t i m e  s t e p   48005                              ( at time 2.3999598E+01 )

 nodal point  x-rot      y-rot       z-rot       x-rot vel   y-rot vel   z-rot vel   x-rot acc   y-rot acc   z-rot acc
    22626  3.33777E-01 1.66649E-01-8.43348E-02 2.00886E-02 8.13044E-03-5.94957E-03 2.47852E-04-1.76636E-04 1.36351E-04



 n o d a l   p r i n t   o u t   f o r   t i m e  s t e p   48205                              ( at time 2.4099588E+01 )

 nodal point  x-disp     y-disp      z-disp      x-vel       y-vel       z-vel      x-accl      y-accl      z-accl      x-coor      y-coor      z-coor
    22626  5.92197E+00-7.82702E-02-1.31437E+01 3.24653E-01-6.03240E-02 4.59036E-01-2.46905E-03-1.55863E-02-1.91080E-03 5.38862E+01-2.21081E+01-5.80524E+00



 n o d a l   p r i n t   o u t   f o r   t i m e  s t e p   48205                              ( at time 2.4099588E+01 )

 nodal point  x-rot      y-rot       z-rot       x-rot vel   y-rot vel   z-rot vel   x-rot acc   y-rot acc   z-rot acc
    22626  3.35786E-01 1.67461E-01-8.49289E-02 2.01032E-02 8.12282E-03-5.93564E-03 1.46380E-04-7.61985E-05 1.39357E-04



 n o d a l   p r i n t   o u t   f o r   t i m e  s t e p   48405                              ( at time 2.4199578E+01 )

 nodal point  x-disp     y-disp      z-disp      x-vel       y-vel       z-vel      x-accl      y-accl      z-accl      x-coor      y-coor      z-coor
    22626  5.95437E+00-8.44100E-02-1.30979E+01 3.23750E-01-6.22264E-02 4.58381E-01-9.02872E-03-1.90263E-02-6.54472E-03 5.39186E+01-2.21142E+01-5.75939E+00



 n o d a l   p r i n t   o u t   f o r   t i m e  s t e p   48405                              ( at time 2.4199578E+01 )

 nodal point  x-rot      y-rot       z-rot       x-rot vel   y-rot vel   z-rot vel   x-rot acc   y-rot acc   z-rot acc
    22626  3.37797E-01 1.68273E-01-8.55215E-02 2.01146E-02 8.11395E-03-5.92203E-03 1.13243E-04-8.86624E-05 1.36058E-04



 n o d a l   p r i n t   o u t   f o r   t i m e  s t e p   48605                              ( at time 2.4299568E+01 )

 nodal point  x-disp     y-disp      z-disp      x-vel       y-vel       z-vel      x-accl      y-accl      z-accl      x-coor      y-coor      z-coor
    22626  5.98670E+00-9.07417E-02-1.30521E+01 3.22775E-01-6.44344E-02 4.58028E-01-9.75728E-03-2.20820E-02-3.53249E-03 5.39509E+01-2.21205E+01-5.71355E+00



 n o d a l   p r i n t   o u t   f o r   t i m e  s t e p   48605                              ( at time 2.4299568E+01 )

 nodal point  x-rot      y-rot       z-rot       x-rot vel   y-rot vel   z-rot vel   x-rot acc   y-rot acc   z-rot acc
    22626  3.39809E-01 1.69083E-01-8.61131E-02 2.01217E-02 8.10215E-03-5.90878E-03 7.08615E-05-1.18093E-04 1.32544E-04



 n o d a l   p r i n t   o u t   f o r   t i m e  s t e p   48805                              ( at time 2.4399558E+01 )

 nodal point  x-disp     y-disp      z-disp      x-vel       y-vel       z-vel      x-accl      y-accl      z-accl      x-coor      y-coor      z-coor
    22626  6.01897E+00-9.72761E-02-1.30063E+01 3.22400E-01-6.63955E-02 4.58258E-01-3.74530E-03-1.96125E-02 2.29857E-03 5.39831E+01-2.21271E+01-5.66775E+00



 n o d a l   p r i n t   o u t   f o r   t i m e  s t e p   48805                              ( at time 2.4399558E+01 )

 nodal point  x-rot      y-rot       z-rot       x-rot vel   y-rot vel   z-rot vel   x-rot acc   y-rot acc   z-rot acc
    22626  3.41821E-01 1.69894E-01-8.67034E-02 2.01226E-02 8.11094E-03-5.89586E-03 9.68664E-06 8.79528E-05 1.29233E-04



 n o d a l   p r i n t   o u t   f o r   t i m e  s t e p   49006                              ( at time 2.4500048E+01 )

 nodal point  x-disp     y-disp      z-disp      x-vel       y-vel       z-vel      x-accl      y-accl      z-accl      x-coor      y-coor      z-coor
    22626  6.05132E+00-1.04069E-01-1.29602E+01 3.21578E-01-6.86623E-02 4.57893E-01-8.18485E-03-2.25578E-02-3.62769E-03 5.40155E+01-2.21339E+01-5.62174E+00



 n o d a l   p r i n t   o u t   f o r   t i m e  s t e p   49006                              ( at time 2.4500048E+01 )

 nodal point  x-rot      y-rot       z-rot       x-rot vel   y-rot vel   z-rot vel   x-rot acc   y-rot acc   z-rot acc
    22626  3.43843E-01 1.70709E-01-8.72950E-02 2.01205E-02 8.10494E-03-5.87780E-03-2.06860E-05-5.97040E-05 1.79705E-04



 n o d a l   p r i n t   o u t   f o r   t i m e  s t e p   49206                              ( at time 2.4600038E+01 )

 nodal point  x-disp     y-disp      z-disp      x-vel       y-vel       z-vel      x-accl      y-accl      z-accl      x-coor      y-coor      z-coor
    22626  6.08344E+00-1.11033E-01-1.29144E+01 3.21088E-01-7.09410E-02 4.57884E-01-4.90353E-03-2.27895E-02-9.17996E-05 5.40476E+01-2.21408E+01-5.57594E+00



 n o d a l   p r i n t   o u t   f o r   t i m e  s t e p   49206                              ( at time 2.4600038E+01 )

 nodal point  x-rot      y-rot       z-rot       x-rot vel   y-rot vel   z-rot vel   x-rot acc   y-rot acc   z-rot acc
    22626  3.45854E-01 1.71519E-01-8.78820E-02 2.01154E-02 8.10465E-03-5.86014E-03-5.16559E-05-2.94325E-06 1.76614E-04



 n o d a l   p r i n t   o u t   f o r   t i m e  s t e p   49406                              ( at time 2.4700028E+01 )

 nodal point  x-disp     y-disp      z-disp      x-vel       y-vel       z-vel      x-accl      y-accl      z-accl      x-coor      y-coor      z-coor
    22626  6.11551E+00-1.18235E-01-1.28686E+01 3.20557E-01-7.31528E-02 4.58217E-01-5.30719E-03-2.21201E-02 3.32750E-03 5.40797E+01-2.21480E+01-5.53015E+00



 n o d a l   p r i n t   o u t   f o r   t i m e  s t e p   49406                              ( at time 2.4700028E+01 )

 nodal point  x-rot      y-rot       z-rot       x-rot vel   y-rot vel   z-rot vel   x-rot acc   y-rot acc   z-rot acc
    22626  3.47866E-01 1.72330E-01-8.84674E-02 2.01087E-02 8.11591E-03-5.84231E-03-6.66342E-05 1.12656E-04 1.78312E-04



 n o d a l   p r i n t   o u t   f o r   t i m e  s t e p   49606                              ( at time 2.4800018E+01 )

 nodal point  x-disp     y-disp      z-disp      x-vel       y-vel       z-vel      x-accl      y-accl      z-accl      x-coor      y-coor      z-coor
    22626  6.14753E+00-1.25643E-01-1.28229E+01 3.20026E-01-7.49882E-02 4.58123E-01-5.31096E-03-1.83561E-02-9.42436E-04 5.41117E+01-2.21554E+01-5.48435E+00



 n o d a l   p r i n t   o u t   f o r   t i m e  s t e p   49606                              ( at time 2.4800018E+01 )

 nodal point  x-rot      y-rot       z-rot       x-rot vel   y-rot vel   z-rot vel   x-rot acc   y-rot acc   z-rot acc
    22626  3.49876E-01 1.73142E-01-8.90506E-02 2.00962E-02 8.11418E-03-5.82073E-03-1.25610E-04-1.73428E-05 2.15854E-04



 n o d a l   p r i n t   o u t   f o r   t i m e  s t e p   49806                              ( at time 2.4900008E+01 )

 nodal point  x-disp     y-disp      z-disp      x-vel       y-vel       z-vel      x-accl      y-accl      z-accl      x-coor      y-coor      z-coor
    22626  6.17951E+00-1.33248E-01-1.27770E+01 3.19676E-01-7.71111E-02 4.58641E-01-3.49471E-03-2.12311E-02 5.18171E-03 5.41437E+01-2.21630E+01-5.43850E+00



 n o d a l   p r i n t   o u t   f o r   t i m e  s t e p   49806                              ( at time 2.4900008E+01 )

 nodal point  x-rot      y-rot       z-rot       x-rot vel   y-rot vel   z-rot vel   x-rot acc   y-rot acc   z-rot acc
    22626  3.51884E-01 1.73953E-01-8.96313E-02 2.00805E-02 8.11860E-03-5.79867E-03-1.56219E-04 4.42334E-05 2.20608E-04



 n o d a l   p r i n t   o u t   f o r   t i m e  s t e p   50006                              ( at time 2.4999998E+01 )

 nodal point  x-disp     y-disp      z-disp      x-vel       y-vel       z-vel      x-accl      y-accl      z-accl      x-coor      y-coor      z-coor
    22626  6.21147E+00-1.41059E-01-1.27311E+01 3.19639E-01-7.89464E-02 4.59535E-01-3.77928E-04-1.83542E-02 8.94062E-03 5.41757E+01-2.21708E+01-5.39260E+00



 n o d a l   p r i n t   o u t   f o r   t i m e  s t e p   50006                              ( at time 2.4999998E+01 )

 nodal point  x-rot      y-rot       z-rot       x-rot vel   y-rot vel   z-rot vel   x-rot acc   y-rot acc   z-rot acc
    22626  3.53891E-01 1.74766E-01-9.02096E-02 2.00547E-02 8.13347E-03-5.76894E-03-2.58484E-04 1.48699E-04 2.97277E-04
