 LSTC 50th% Full_FE H-III Dummy (Beta Version, February 17, 2019)        
                    ls-dyna smp s R16 R16.0_619_d222963 date 03/18/2025

{BEGIN LEGEND}
 Entity #        Title
    22626                                                                                     
{END LEGEND}




 n o d a l   p r i n t   o u t   f o r   t i m e  s t e p       1                              ( at time 0.0000000E+00 )

 nodal point  x-disp     y-disp      z-disp      x-vel       y-vel       z-vel      x-accl      y-accl      z-accl      x-coor      y-coor      z-coor
    22626  0.00000E+00 0.00000E+00 0.00000E+00 0.00000E+00 0.00000E+00 0.00000E+00 0.00000E+00 0.00000E+00 0.00000E+00 4.65938E+00-2.81908E+01-4.49817E+01



 n o d a l   p r i n t   o u t   f o r   t i m e  s t e p       1                              ( at time 0.0000000E+00 )

 nodal point  x-rot      y-rot       z-rot       x-rot vel   y-rot vel   z-rot vel   x-rot acc   y-rot acc   z-rot acc
    22626  0.00000E+00 0.00000E+00 0.00000E+00 0.00000E+00 0.00000E+00 0.00000E+00 0.00000E+00 0.00000E+00 0.00000E+00



 n o d a l   p r i n t   o u t   f o r   t i m e  s t e p     201                              ( at time 9.9989993E-02 )

 nodal point  x-disp     y-disp      z-disp      x-vel       y-vel       z-vel      x-accl      y-accl      z-accl      x-coor      y-coor      z-coor
    22626  2.73575E-07 1.73669E-06-5.34278E-05 4.19752E-05 2.55596E-04-1.46819E-03 4.19794E-04 2.55621E-03-1.46834E-02 4.65938E+00-2.81908E+01-4.49818E+01



 n o d a l   p r i n t   o u t   f o r   t i m e  s t e p     201                              ( at time 9.9989993E-02 )

 nodal point  x-rot      y-rot       z-rot       x-rot vel   y-rot vel   z-rot vel   x-rot acc   y-rot acc   z-rot acc
    22626 -5.98981E-08-8.38467E-09-5.45921E-09-5.86955E-06-9.69950E-07-9.27111E-07-5.87014E-05-9.70047E-06-9.27203E-06



 n o d a l   p r i n t   o u t   f o r   t i m e  s t e p     401                              ( at time 1.9997999E-01 )

 nodal point  x-disp     y-disp      z-disp      x-vel       y-vel       z-vel      x-accl      y-accl      z-accl      x-coor      y-coor      z-coor
    22626  1.73035E-05 3.61747E-04-6.67590E-04 3.06189E-05 7.81138E-03-1.21541E-02-1.13574E-04 7.55654E-02-1.06869E-01 4.65939E+00-2.81905E+01-4.49824E+01



 n o d a l   p r i n t   o u t   f o r   t i m e  s t e p     401                              ( at time 1.9997999E-01 )

 nodal point  x-rot      y-rot       z-rot       x-rot vel   y-rot vel   z-rot vel   x-rot acc   y-rot acc   z-rot acc
    22626 -2.81997E-06-3.37011E-07-3.34433E-07-3.94102E-05-1.76317E-06-2.28810E-06-3.35441E-04-7.93294E-06-1.36112E-05



 n o d a l   p r i n t   o u t   f o r   t i m e  s t e p     601                              ( at time 2.9996998E-01 )

 nodal point  x-disp     y-disp      z-disp      x-vel       y-vel       z-vel      x-accl      y-accl      z-accl      x-coor      y-coor      z-coor
    22626  2.73518E-05 1.24006E-03-2.33843E-03 4.22107E-04 8.44812E-03-1.92547E-02 3.91527E-03 6.36802E-03-7.10133E-02 4.65940E+00-2.81896E+01-4.49841E+01



 n o d a l   p r i n t   o u t   f o r   t i m e  s t e p     601                              ( at time 2.9996998E-01 )

 nodal point  x-rot      y-rot       z-rot       x-rot vel   y-rot vel   z-rot vel   x-rot acc   y-rot acc   z-rot acc
    22626 -5.38433E-06-3.90343E-07-6.42179E-07-1.54599E-05-5.46347E-06-6.72636E-06 2.39528E-04-3.70068E-05-4.43870E-05



 n o d a l   p r i n t   o u t   f o r   t i m e  s t e p     801                              ( at time 3.9995997E-01 )

 nodal point  x-disp     y-disp      z-disp      x-vel       y-vel       z-vel      x-accl      y-accl      z-accl      x-coor      y-coor      z-coor
    22626  2.60525E-05 2.16245E-03-4.28287E-03-3.17368E-04 1.07390E-02-2.10874E-02-7.39549E-03 2.29107E-02-1.83289E-02 4.65940E+00-2.81887E+01-4.49860E+01



 n o d a l   p r i n t   o u t   f o r   t i m e  s t e p     801                              ( at time 3.9995997E-01 )

 nodal point  x-rot      y-rot       z-rot       x-rot vel   y-rot vel   z-rot vel   x-rot acc   y-rot acc   z-rot acc
    22626 -7.61654E-06-1.25019E-06-9.81722E-07-4.48869E-05-6.18508E-06-1.47178E-06-2.94299E-04-7.21682E-06 5.25510E-05



 n o d a l   p r i n t   o u t   f o r   t i m e  s t e p    1001                              ( at time 4.9994997E-01 )

 nodal point  x-disp     y-disp      z-disp      x-vel       y-vel       z-vel      x-accl      y-accl      z-accl      x-coor      y-coor      z-coor
    22626  3.67989E-06 3.43653E-03-6.74479E-03-2.39455E-04 1.41534E-02-2.87061E-02 7.79205E-04 3.41482E-02-7.61944E-02 4.65938E+00-2.81874E+01-4.49885E+01



 n o d a l   p r i n t   o u t   f o r   t i m e  s t e p    1001                              ( at time 4.9994997E-01 )

 nodal point  x-rot      y-rot       z-rot       x-rot vel   y-rot vel   z-rot vel   x-rot acc   y-rot acc   z-rot acc
    22626 -1.35607E-05-1.16576E-06-9.49867E-07-8.41372E-05 3.18144E-06 4.12474E-06-3.92543E-04 9.36746E-05 5.59709E-05



 n o d a l   p r i n t   o u t   f o r   t i m e  s t e p    1201                              ( at time 5.9993996E-01 )

 nodal point  x-disp     y-disp      z-disp      x-vel       y-vel       z-vel      x-accl      y-accl      z-accl      x-coor      y-coor      z-coor
    22626 -8.86585E-07 5.01225E-03-9.71614E-03 4.55155E-05 1.67006E-02-3.09900E-02 2.84999E-03 2.54743E-02-2.28412E-02 4.65937E+00-2.81858E+01-4.49914E+01



 n o d a l   p r i n t   o u t   f o r   t i m e  s t e p    1201                              ( at time 5.9993996E-01 )

 nodal point  x-rot      y-rot       z-rot       x-rot vel   y-rot vel   z-rot vel   x-rot acc   y-rot acc   z-rot acc
    22626 -2.02866E-05-8.87012E-07-9.58163E-07-5.90789E-05 3.89778E-06-2.02905E-06 2.50608E-04 7.16410E-06-6.15441E-05



 n o d a l   p r i n t   o u t   f o r   t i m e  s t e p    1401                              ( at time 6.9992995E-01 )

 nodal point  x-disp     y-disp      z-disp      x-vel       y-vel       z-vel      x-accl      y-accl      z-accl      x-coor      y-coor      z-coor
    22626 -5.09890E-05 6.85040E-03-1.31710E-02-4.88298E-04 1.96598E-02-3.89668E-02-5.33867E-03 2.95944E-02-7.97760E-02 4.65932E+00-2.81840E+01-4.49949E+01



 n o d a l   p r i n t   o u t   f o r   t i m e  s t e p    1401                              ( at time 6.9992995E-01 )

 nodal point  x-rot      y-rot       z-rot       x-rot vel   y-rot vel   z-rot vel   x-rot acc   y-rot acc   z-rot acc
    22626 -2.62099E-05-9.01343E-07-6.32676E-07-7.08547E-05 2.38867E-07 3.85616E-06-1.17769E-04-3.65928E-05 5.88580E-05



 n o d a l   p r i n t   o u t   f o r   t i m e  s t e p    1601                              ( at time 7.9991994E-01 )

 nodal point  x-disp     y-disp      z-disp      x-vel       y-vel       z-vel      x-accl      y-accl      z-accl      x-coor      y-coor      z-coor
    22626 -8.02474E-05 8.98675E-03-1.74642E-02-4.95256E-04 2.21654E-02-4.51173E-02-6.95808E-05 2.50587E-02-6.15112E-02 4.65929E+00-2.81818E+01-4.49992E+01



 n o d a l   p r i n t   o u t   f o r   t i m e  s t e p    1601                              ( at time 7.9991994E-01 )

 nodal point  x-rot      y-rot       z-rot       x-rot vel   y-rot vel   z-rot vel   x-rot acc   y-rot acc   z-rot acc
    22626 -3.43991E-05-8.78857E-07-5.15754E-07-9.18151E-05-4.85757E-06 1.54702E-06-2.09625E-04-5.09695E-05-2.30937E-05



 n o d a l   p r i n t   o u t   f o r   t i m e  s t e p    1801                              ( at time 8.9990994E-01 )

 nodal point  x-disp     y-disp      z-disp      x-vel       y-vel       z-vel      x-accl      y-accl      z-accl      x-coor      y-coor      z-coor
    22626 -1.16893E-04 1.12542E-02-2.19906E-02-2.90151E-04 2.40433E-02-4.55876E-02 2.05126E-03 1.87811E-02-4.70376E-03 4.65926E+00-2.81796E+01-4.50037E+01



 n o d a l   p r i n t   o u t   f o r   t i m e  s t e p    1801                              ( at time 8.9990994E-01 )

 nodal point  x-rot      y-rot       z-rot       x-rot vel   y-rot vel   z-rot vel   x-rot acc   y-rot acc   z-rot acc
    22626 -4.28179E-05-9.58140E-07-5.02273E-07-8.25358E-05 1.99352E-06-6.40012E-07 9.28022E-05 6.85178E-05-2.18725E-05



 n o d a l   p r i n t   o u t   f o r   t i m e  s t e p    2001                              ( at time 9.9989993E-01 )

 nodal point  x-disp     y-disp      z-disp      x-vel       y-vel       z-vel      x-accl      y-accl      z-accl      x-coor      y-coor      z-coor
    22626 -1.52016E-04 1.37912E-02-2.67304E-02-3.53555E-05 2.64979E-02-5.00344E-02 2.54820E-03 2.45480E-02-4.44728E-02 4.65922E+00-2.81770E+01-4.50084E+01



 n o d a l   p r i n t   o u t   f o r   t i m e  s t e p    2001                              ( at time 9.9989993E-01 )

 nodal point  x-rot      y-rot       z-rot       x-rot vel   y-rot vel   z-rot vel   x-rot acc   y-rot acc   z-rot acc
    22626 -5.18507E-05-9.08547E-07-4.38339E-07-1.06131E-04 1.19868E-06-3.01869E-06-2.35972E-04-7.94914E-06-2.37892E-05



 n o d a l   p r i n t   o u t   f o r   t i m e  s t e p    2201                              ( at time 1.0998899E+00 )

 nodal point  x-disp     y-disp      z-disp      x-vel       y-vel       z-vel      x-accl      y-accl      z-accl      x-coor      y-coor      z-coor
    22626 -1.59782E-04 1.65321E-02-3.20559E-02-3.42567E-04 2.88834E-02-5.60786E-02-3.07243E-03 2.38574E-02-6.04479E-02 4.65922E+00-2.81743E+01-4.50138E+01



 n o d a l   p r i n t   o u t   f o r   t i m e  s t e p    2201                              ( at time 1.0998899E+00 )

 nodal point  x-rot      y-rot       z-rot       x-rot vel   y-rot vel   z-rot vel   x-rot acc   y-rot acc   z-rot acc
    22626 -6.29464E-05-1.00471E-06-7.50318E-07-1.03755E-04-7.58742E-06-2.01454E-06 2.37550E-05-8.78699E-05 1.00425E-05



 n o d a l   p r i n t   o u t   f o r   t i m e  s t e p    2401                              ( at time 1.1998799E+00 )

 nodal point  x-disp     y-disp      z-disp      x-vel       y-vel       z-vel      x-accl      y-accl      z-accl      x-coor      y-coor      z-coor
    22626 -1.89784E-04 1.94752E-02-3.79327E-02-1.96007E-04 3.02222E-02-6.12146E-02 1.46575E-03 1.33896E-02-5.13647E-02 4.65919E+00-2.81714E+01-4.50197E+01



 n o d a l   p r i n t   o u t   f o r   t i m e  s t e p    2401                              ( at time 1.1998799E+00 )

 nodal point  x-rot      y-rot       z-rot       x-rot vel   y-rot vel   z-rot vel   x-rot acc   y-rot acc   z-rot acc
    22626 -7.29524E-05-1.61540E-06-9.91105E-07-1.01346E-04-7.11342E-06-3.00268E-06 2.40967E-05 4.74046E-06-9.88232E-06



 n o d a l   p r i n t   o u t   f o r   t i m e  s t e p    2601                              ( at time 1.2998699E+00 )

 nodal point  x-disp     y-disp      z-disp      x-vel       y-vel       z-vel      x-accl      y-accl      z-accl      x-coor      y-coor      z-coor
    22626 -2.23843E-04 2.26249E-02-4.42079E-02-2.46730E-04 3.26022E-02-6.40497E-02-5.07279E-04 2.38028E-02-2.83542E-02 4.65915E+00-2.81682E+01-4.50259E+01



 n o d a l   p r i n t   o u t   f o r   t i m e  s t e p    2601                              ( at time 1.2998699E+00 )

 nodal point  x-rot      y-rot       z-rot       x-rot vel   y-rot vel   z-rot vel   x-rot acc   y-rot acc   z-rot acc
    22626 -8.39944E-05-2.17098E-06-1.24628E-06-1.29257E-04 2.48140E-08-1.34703E-06-2.79140E-04 7.13895E-05 1.65581E-05



 n o d a l   p r i n t   o u t   f o r   t i m e  s t e p    2801                              ( at time 1.3998599E+00 )

 nodal point  x-disp     y-disp      z-disp      x-vel       y-vel       z-vel      x-accl      y-accl      z-accl      x-coor      y-coor      z-coor
    22626 -2.51458E-04 2.59924E-02-5.07121E-02-4.48290E-04 3.45130E-02-6.66720E-02-2.01580E-03 1.91099E-02-2.62252E-02 4.65912E+00-2.81648E+01-4.50324E+01



 n o d a l   p r i n t   o u t   f o r   t i m e  s t e p    2801                              ( at time 1.3998599E+00 )

 nodal point  x-rot      y-rot       z-rot       x-rot vel   y-rot vel   z-rot vel   x-rot acc   y-rot acc   z-rot acc
    22626 -9.73971E-05-2.01159E-06-1.34553E-06-1.36951E-04-2.62292E-07 1.77352E-06-7.69416E-05-2.87134E-06 3.12087E-05



 n o d a l   p r i n t   o u t   f o r   t i m e  s t e p    3001                              ( at time 1.4998499E+00 )

 nodal point  x-disp     y-disp      z-disp      x-vel       y-vel       z-vel      x-accl      y-accl      z-accl      x-coor      y-coor      z-coor
    22626 -2.96320E-04 2.95911E-02-5.77242E-02-4.47286E-04 3.72770E-02-7.39886E-02 1.00459E-05 2.76425E-02-7.31732E-02 4.65908E+00-2.81612E+01-4.50394E+01



 n o d a l   p r i n t   o u t   f o r   t i m e  s t e p    3001                              ( at time 1.4998499E+00 )

 nodal point  x-rot      y-rot       z-rot       x-rot vel   y-rot vel   z-rot vel   x-rot acc   y-rot acc   z-rot acc
    22626 -1.10707E-04-2.03214E-06-1.27138E-06-1.28843E-04-1.05513E-06-1.77414E-06 8.10831E-05-7.92914E-06-3.54802E-05



 n o d a l   p r i n t   o u t   f o r   t i m e  s t e p    3201                              ( at time 1.5998399E+00 )

 nodal point  x-disp     y-disp      z-disp      x-vel       y-vel       z-vel      x-accl      y-accl      z-accl      x-coor      y-coor      z-coor
    22626 -3.60075E-04 3.34891E-02-6.54465E-02-5.85294E-04 4.05411E-02-7.97046E-02-1.38022E-03 3.26442E-02-5.71657E-02 4.65901E+00-2.81573E+01-4.50472E+01



 n o d a l   p r i n t   o u t   f o r   t i m e  s t e p    3201                              ( at time 1.5998399E+00 )

 nodal point  x-rot      y-rot       z-rot       x-rot vel   y-rot vel   z-rot vel   x-rot acc   y-rot acc   z-rot acc
    22626 -1.23311E-04-2.14935E-06-1.09881E-06-1.34700E-04-2.95372E-06 3.16641E-06-5.85738E-05-1.89879E-05 4.94104E-05



 n o d a l   p r i n t   o u t   f o r   t i m e  s t e p    3401                              ( at time 1.6998299E+00 )

 nodal point  x-disp     y-disp      z-disp      x-vel       y-vel       z-vel      x-accl      y-accl      z-accl      x-coor      y-coor      z-coor
    22626 -4.21696E-04 3.76416E-02-7.35823E-02-7.29077E-04 4.22431E-02-8.25952E-02-1.43797E-03 1.70220E-02-2.89095E-02 4.65895E+00-2.81532E+01-4.50553E+01



 n o d a l   p r i n t   o u t   f o r   t i m e  s t e p    3401                              ( at time 1.6998299E+00 )

 nodal point  x-rot      y-rot       z-rot       x-rot vel   y-rot vel   z-rot vel   x-rot acc   y-rot acc   z-rot acc
    22626 -1.37610E-04-2.15294E-06-9.09710E-07-1.47579E-04 1.61184E-06 3.96021E-06-1.28804E-04 4.56602E-05 7.93877E-06



 n o d a l   p r i n t   o u t   f o r   t i m e  s t e p    3601                              ( at time 1.7998199E+00 )

 nodal point  x-disp     y-disp      z-disp      x-vel       y-vel       z-vel      x-accl      y-accl      z-accl      x-coor      y-coor      z-coor
    22626 -4.84840E-04 4.19001E-02-8.19598E-02-5.11913E-04 4.32811E-02-8.48717E-02 2.17186E-03 1.03803E-02-2.27674E-02 4.65889E+00-2.81489E+01-4.50637E+01



 n o d a l   p r i n t   o u t   f o r   t i m e  s t e p    3601                              ( at time 1.7998199E+00 )

 nodal point  x-rot      y-rot       z-rot       x-rot vel   y-rot vel   z-rot vel   x-rot acc   y-rot acc   z-rot acc
    22626 -1.52822E-04-2.06490E-06-7.78138E-07-1.49751E-04 1.55745E-06-1.44294E-06-2.17203E-05-5.43890E-07-5.40369E-05



 n o d a l   p r i n t   o u t   f o r   t i m e  s t e p    3801                              ( at time 1.8998099E+00 )

 nodal point  x-disp     y-disp      z-disp      x-vel       y-vel       z-vel      x-accl      y-accl      z-accl      x-coor      y-coor      z-coor
    22626 -5.44068E-04 4.63775E-02-9.06358E-02-5.20834E-04 4.60831E-02-8.88702E-02-8.92139E-05 2.80231E-02-3.99888E-02 4.65883E+00-2.81445E+01-4.50724E+01



 n o d a l   p r i n t   o u t   f o r   t i m e  s t e p    3801                              ( at time 1.8998099E+00 )

 nodal point  x-rot      y-rot       z-rot       x-rot vel   y-rot vel   z-rot vel   x-rot acc   y-rot acc   z-rot acc
    22626 -1.67674E-04-1.85568E-06-6.48525E-07-1.49735E-04-1.67269E-06-5.78132E-07 1.55721E-07-3.23047E-05 8.64889E-06



 n o d a l   p r i n t   o u t   f o r   t i m e  s t e p    4001                              ( at time 1.9997999E+00 )

 nodal point  x-disp     y-disp      z-disp      x-vel       y-vel       z-vel      x-accl      y-accl      z-accl      x-coor      y-coor      z-coor
    22626 -5.94953E-04 5.10271E-02-9.97453E-02-5.50184E-04 4.71683E-02-9.31104E-02-2.93532E-04 1.08534E-02-4.24059E-02 4.65878E+00-2.81398E+01-4.50815E+01



 n o d a l   p r i n t   o u t   f o r   t i m e  s t e p    4001                              ( at time 1.9997999E+00 )

 nodal point  x-rot      y-rot       z-rot       x-rot vel   y-rot vel   z-rot vel   x-rot acc   y-rot acc   z-rot acc
    22626 -1.82767E-04-2.09101E-06-6.99827E-07-1.56136E-04-4.55038E-06-2.27215E-07-6.40137E-05-2.87798E-05 3.50952E-06



 n o d a l   p r i n t   o u t   f o r   t i m e  s t e p    4201                              ( at time 2.0997899E+00 )

 nodal point  x-disp     y-disp      z-disp      x-vel       y-vel       z-vel      x-accl      y-accl      z-accl      x-coor      y-coor      z-coor
    22626 -6.49053E-04 5.57835E-02-1.09162E-01-5.57400E-04 4.81960E-02-9.53035E-02-7.21731E-05 1.02781E-02-2.19334E-02 4.65873E+00-2.81350E+01-4.50909E+01



 n o d a l   p r i n t   o u t   f o r   t i m e  s t e p    4201                              ( at time 2.0997899E+00 )

 nodal point  x-rot      y-rot       z-rot       x-rot vel   y-rot vel   z-rot vel   x-rot acc   y-rot acc   z-rot acc
    22626 -1.97947E-04-2.48125E-06-8.62687E-07-1.50089E-04-1.50205E-06 2.07287E-06 6.04805E-05 3.04863E-05 2.30032E-05



 n o d a l   p r i n t   o u t   f o r   t i m e  s t e p    4401                              ( at time 2.1997798E+00 )

 nodal point  x-disp     y-disp      z-disp      x-vel       y-vel       z-vel      x-accl      y-accl      z-accl      x-coor      y-coor      z-coor
    22626 -7.07768E-04 6.06672E-02-1.18761E-01-4.94175E-04 4.91617E-02-9.67327E-02 6.32323E-04 9.65738E-03-1.42930E-02 4.65867E+00-2.81302E+01-4.51005E+01



 n o d a l   p r i n t   o u t   f o r   t i m e  s t e p    4401                              ( at time 2.1997798E+00 )

 nodal point  x-rot      y-rot       z-rot       x-rot vel   y-rot vel   z-rot vel   x-rot acc   y-rot acc   z-rot acc
    22626 -2.13319E-04-2.58803E-06-8.59423E-07-1.59217E-04-1.60721E-06-9.96278E-07-9.12953E-05-1.05171E-06-3.06946E-05



 n o d a l   p r i n t   o u t   f o r   t i m e  s t e p    4601                              ( at time 2.2997698E+00 )

 nodal point  x-disp     y-disp      z-disp      x-vel       y-vel       z-vel      x-accl      y-accl      z-accl      x-coor      y-coor      z-coor
    22626 -7.62921E-04 6.56142E-02-1.28510E-01-6.47318E-04 5.01797E-02-9.87432E-02-1.53159E-03 1.01814E-02-2.01069E-02 4.65861E+00-2.81252E+01-4.51102E+01



 n o d a l   p r i n t   o u t   f o r   t i m e  s t e p    4601                              ( at time 2.2997698E+00 )

 nodal point  x-rot      y-rot       z-rot       x-rot vel   y-rot vel   z-rot vel   x-rot acc   y-rot acc   z-rot acc
    22626 -2.29837E-04-2.52235E-06-8.68550E-07-1.61488E-04 8.85960E-07-1.12072E-06-2.27112E-05 2.49342E-05-1.24455E-06



 n o d a l   p r i n t   o u t   f o r   t i m e  s t e p    4801                              ( at time 2.3997598E+00 )

 nodal point  x-disp     y-disp      z-disp      x-vel       y-vel       z-vel      x-accl      y-accl      z-accl      x-coor      y-coor      z-coor
    22626 -8.37330E-04 7.07390E-02-1.38609E-01-7.67292E-04 5.20274E-02-1.03267E-01-1.19986E-03 1.84791E-02-4.52406E-02 4.65854E+00-2.81201E+01-4.51203E+01



 n o d a l   p r i n t   o u t   f o r   t i m e  s t e p    4801                              ( at time 2.3997598E+00 )

 nodal point  x-rot      y-rot       z-rot       x-rot vel   y-rot vel   z-rot vel   x-rot acc   y-rot acc   z-rot acc
    22626 -2.45591E-04-2.51473E-06-5.97522E-07-1.55350E-04-5.33501E-08 4.19548E-06 6.13901E-05-9.39405E-06 5.31674E-05



 n o d a l   p r i n t   o u t   f o r   t i m e  s t e p    5001                              ( at time 2.4997498E+00 )

 nodal point  x-disp     y-disp      z-disp      x-vel       y-vel       z-vel      x-accl      y-accl      z-accl      x-coor      y-coor      z-coor
    22626 -9.18537E-04 7.60401E-02-1.49106E-01-9.24177E-04 5.34348E-02-1.05955E-01-1.56901E-03 1.40753E-02-2.68831E-02 4.65846E+00-2.81148E+01-4.51308E+01



 n o d a l   p r i n t   o u t   f o r   t i m e  s t e p    5001                              ( at time 2.4997498E+00 )

 nodal point  x-rot      y-rot       z-rot       x-rot vel   y-rot vel   z-rot vel   x-rot acc   y-rot acc   z-rot acc
    22626 -2.61160E-04-2.39371E-06-3.35407E-07-1.54668E-04 1.74729E-06 4.48565E-06 6.82174E-06 1.80082E-05 2.90201E-06



 n o d a l   p r i n t   o u t   f o r   t i m e  s t e p    5201                              ( at time 2.5997398E+00 )

 nodal point  x-disp     y-disp      z-disp      x-vel       y-vel       z-vel      x-accl      y-accl      z-accl      x-coor      y-coor      z-coor
    22626 -1.00928E-03 8.13921E-02-1.59710E-01-9.92096E-04 5.34912E-02-1.06029E-01-6.79255E-04 5.63731E-04-7.43271E-04 4.65837E+00-2.81094E+01-4.51414E+01



 n o d a l   p r i n t   o u t   f o r   t i m e  s t e p    5201                              ( at time 2.5997398E+00 )

 nodal point  x-rot      y-rot       z-rot       x-rot vel   y-rot vel   z-rot vel   x-rot acc   y-rot acc   z-rot acc
    22626 -2.76669E-04-2.06673E-06 5.73505E-08-1.51690E-04 5.12521E-06 4.92263E-06 2.97787E-05 3.37826E-05 4.37023E-06



 n o d a l   p r i n t   o u t   f o r   t i m e  s t e p    5401                              ( at time 2.6997298E+00 )

 nodal point  x-disp     y-disp      z-disp      x-vel       y-vel       z-vel      x-accl      y-accl      z-accl      x-coor      y-coor      z-coor
    22626 -1.10738E-03 8.67281E-02-1.70314E-01-8.14627E-04 5.35613E-02-1.06230E-01 1.77487E-03 7.01318E-04-2.01007E-03 4.65827E+00-2.81041E+01-4.51520E+01



 n o d a l   p r i n t   o u t   f o r   t i m e  s t e p    5401                              ( at time 2.6997298E+00 )

 nodal point  x-rot      y-rot       z-rot       x-rot vel   y-rot vel   z-rot vel   x-rot acc   y-rot acc   z-rot acc
    22626 -2.92383E-04-1.62912E-06 5.81416E-07-1.63082E-04 5.30389E-06 3.44989E-06-1.13931E-04 1.78697E-06-1.47289E-05



 n o d a l   p r i n t   o u t   f o r   t i m e  s t e p    5601                              ( at time 2.7997198E+00 )

 nodal point  x-disp     y-disp      z-disp      x-vel       y-vel       z-vel      x-accl      y-accl      z-accl      x-coor      y-coor      z-coor
    22626 -1.19441E-03 9.21214E-02-1.80982E-01-8.86353E-04 5.42835E-02-1.07482E-01-7.17338E-04 7.22213E-03-1.25214E-02 4.65818E+00-2.80987E+01-4.51627E+01



 n o d a l   p r i n t   o u t   f o r   t i m e  s t e p    5601                              ( at time 2.7997198E+00 )

 nodal point  x-rot      y-rot       z-rot       x-rot vel   y-rot vel   z-rot vel   x-rot acc   y-rot acc   z-rot acc
    22626 -3.07868E-04-1.11689E-06 9.97589E-07-1.44627E-04 3.14893E-06 4.47255E-06 1.84567E-04-2.15518E-05 1.02277E-05



 n o d a l   p r i n t   o u t   f o r   t i m e  s t e p    5801                              ( at time 2.8997098E+00 )

 nodal point  x-disp     y-disp      z-disp      x-vel       y-vel       z-vel      x-accl      y-accl      z-accl      x-coor      y-coor      z-coor
    22626 -1.27561E-03 9.75421E-02-1.91832E-01-7.40144E-04 5.41955E-02-1.09472E-01 1.46224E-03-8.80189E-04-1.99012E-02 4.65810E+00-2.80933E+01-4.51736E+01



 n o d a l   p r i n t   o u t   f o r   t i m e  s t e p    5801                              ( at time 2.8997098E+00 )

 nodal point  x-rot      y-rot       z-rot       x-rot vel   y-rot vel   z-rot vel   x-rot acc   y-rot acc   z-rot acc
    22626 -3.21820E-04-9.22790E-07 1.29769E-06-1.40067E-04 5.72753E-07 3.66541E-06 4.56039E-05-2.57644E-05-8.07230E-06



 n o d a l   p r i n t   o u t   f o r   t i m e  s t e p    6001                              ( at time 2.9996998E+00 )

 nodal point  x-disp     y-disp      z-disp      x-vel       y-vel       z-vel      x-accl      y-accl      z-accl      x-coor      y-coor      z-coor
    22626 -1.35919E-03 1.02933E-01-2.02795E-01-7.25387E-04 5.35788E-02-1.09337E-01 1.47584E-04-6.16686E-03 1.34742E-03 4.65802E+00-2.80879E+01-4.51845E+01



 n o d a l   p r i n t   o u t   f o r   t i m e  s t e p    6001                              ( at time 2.9996998E+00 )

 nodal point  x-rot      y-rot       z-rot       x-rot vel   y-rot vel   z-rot vel   x-rot acc   y-rot acc   z-rot acc
    22626 -3.36597E-04-8.83772E-07 1.48114E-06-1.50260E-04 4.09147E-07 2.42762E-06-1.01937E-04-1.63623E-06-1.23791E-05



 n o d a l   p r i n t   o u t   f o r   t i m e  s t e p    6201                              ( at time 3.0996898E+00 )

 nodal point  x-disp     y-disp      z-disp      x-vel       y-vel       z-vel      x-accl      y-accl      z-accl      x-coor      y-coor      z-coor
    22626 -1.42805E-03 1.08282E-01-2.13683E-01-7.42651E-04 5.35959E-02-1.08919E-01-1.72658E-04 1.70822E-04 4.18363E-03 4.65795E+00-2.80825E+01-4.51954E+01



 n o d a l   p r i n t   o u t   f o r   t i m e  s t e p    6201                              ( at time 3.0996898E+00 )

 nodal point  x-rot      y-rot       z-rot       x-rot vel   y-rot vel   z-rot vel   x-rot acc   y-rot acc   z-rot acc
    22626 -3.51630E-04-8.10455E-07 1.73988E-06-1.49320E-04 1.43435E-07 4.44129E-06 9.40280E-06-2.65739E-06 2.01388E-05



 n o d a l   p r i n t   o u t   f o r   t i m e  s t e p    6401                              ( at time 3.1996798E+00 )

 nodal point  x-disp     y-disp      z-disp      x-vel       y-vel       z-vel      x-accl      y-accl      z-accl      x-coor      y-coor      z-coor
    22626 -1.49375E-03 1.13660E-01-2.24665E-01-6.49265E-04 5.39987E-02-1.10860E-01 9.33951E-04 4.02814E-03-1.94099E-02 4.65788E+00-2.80772E+01-4.52064E+01



 n o d a l   p r i n t   o u t   f o r   t i m e  s t e p    6401                              ( at time 3.1996798E+00 )

 nodal point  x-rot      y-rot       z-rot       x-rot vel   y-rot vel   z-rot vel   x-rot acc   y-rot acc   z-rot acc
    22626 -3.66472E-04-6.86273E-07 1.88859E-06-1.42280E-04 1.45607E-06 1.22752E-06 7.04001E-05 1.31277E-05-3.21409E-05



 n o d a l   p r i n t   o u t   f o r   t i m e  s t e p    6601                              ( at time 3.2996698E+00 )

 nodal point  x-disp     y-disp      z-disp      x-vel       y-vel       z-vel      x-accl      y-accl      z-accl      x-coor      y-coor      z-coor
    22626 -1.57194E-03 1.19081E-01-2.35856E-01-8.25622E-04 5.42995E-02-1.12736E-01-1.76375E-03 3.00863E-03-1.87685E-02 4.65780E+00-2.80717E+01-4.52176E+01



 n o d a l   p r i n t   o u t   f o r   t i m e  s t e p    6601                              ( at time 3.2996698E+00 )

 nodal point  x-rot      y-rot       z-rot       x-rot vel   y-rot vel   z-rot vel   x-rot acc   y-rot acc   z-rot acc
    22626 -3.80615E-04-5.13900E-07 2.14762E-06-1.37853E-04 2.39957E-06 2.81097E-06 4.42749E-05 9.43587E-06 1.58361E-05



 n o d a l   p r i n t   o u t   f o r   t i m e  s t e p    6801                              ( at time 3.3996598E+00 )

 nodal point  x-disp     y-disp      z-disp      x-vel       y-vel       z-vel      x-accl      y-accl      z-accl      x-coor      y-coor      z-coor
    22626 -1.65963E-03 1.24514E-01-2.47151E-01-9.76262E-04 5.41638E-02-1.13060E-01-1.50654E-03-1.35703E-03-3.23409E-03 4.65772E+00-2.80663E+01-4.52289E+01



 n o d a l   p r i n t   o u t   f o r   t i m e  s t e p    6801                              ( at time 3.3996598E+00 )

 nodal point  x-rot      y-rot       z-rot       x-rot vel   y-rot vel   z-rot vel   x-rot acc   y-rot acc   z-rot acc
    22626 -3.94349E-04-3.67359E-07 2.49796E-06-1.37498E-04 3.57493E-06 6.09470E-06 3.55218E-06 1.17548E-05 3.28406E-05



 n o d a l   p r i n t   o u t   f o r   t i m e  s t e p    7001                              ( at time 3.4996498E+00 )

 nodal point  x-disp     y-disp      z-disp      x-vel       y-vel       z-vel      x-accl      y-accl      z-accl      x-coor      y-coor      z-coor
    22626 -1.75351E-03 1.29886E-01-2.58394E-01-9.59255E-04 5.34712E-02-1.11785E-01 1.70080E-04-6.92721E-03 1.27534E-02 4.65762E+00-2.80609E+01-4.52401E+01



 n o d a l   p r i n t   o u t   f o r   t i m e  s t e p    7001                              ( at time 3.4996498E+00 )

 nodal point  x-rot      y-rot       z-rot       x-rot vel   y-rot vel   z-rot vel   x-rot acc   y-rot acc   z-rot acc
    22626 -4.08340E-04-3.21307E-08 2.95747E-06-1.39216E-04 4.57268E-06 4.38851E-06-1.71841E-05 9.97847E-06-1.70637E-05



 n o d a l   p r i n t   o u t   f o r   t i m e  s t e p    7201                              ( at time 3.5996397E+00 )

 nodal point  x-disp     y-disp      z-disp      x-vel       y-vel       z-vel      x-accl      y-accl      z-accl      x-coor      y-coor      z-coor
    22626 -1.84430E-03 1.35213E-01-2.69505E-01-7.68347E-04 5.29541E-02-1.10879E-01 1.90928E-03-5.17130E-03 9.05777E-03 4.65753E+00-2.80556E+01-4.52512E+01



 n o d a l   p r i n t   o u t   f o r   t i m e  s t e p    7201                              ( at time 3.5996397E+00 )

 nodal point  x-rot      y-rot       z-rot       x-rot vel   y-rot vel   z-rot vel   x-rot acc   y-rot acc   z-rot acc
    22626 -4.22000E-04 6.18288E-07 3.57780E-06-1.39124E-04 6.51636E-06 4.74526E-06 9.28069E-07 1.94387E-05 3.56792E-06



 n o d a l   p r i n t   o u t   f o r   t i m e  s t e p    7401                              ( at time 3.6996297E+00 )

 nodal point  x-disp     y-disp      z-disp      x-vel       y-vel       z-vel      x-accl      y-accl      z-accl      x-coor      y-coor      z-coor
    22626 -1.92578E-03 1.40509E-01-2.80600E-01-8.25735E-04 5.29999E-02-1.11141E-01-5.73938E-04 4.58070E-04-2.61936E-03 4.65745E+00-2.80503E+01-4.52623E+01



 n o d a l   p r i n t   o u t   f o r   t i m e  s t e p    7401                              ( at time 3.6996297E+00 )

 nodal point  x-rot      y-rot       z-rot       x-rot vel   y-rot vel   z-rot vel   x-rot acc   y-rot acc   z-rot acc
    22626 -4.35714E-04 1.12174E-06 4.03244E-06-1.35199E-04 2.30174E-06 2.81869E-06 3.92466E-05-4.21503E-05-1.92676E-05



 n o d a l   p r i n t   o u t   f o r   t i m e  s t e p    7601                              ( at time 3.7996197E+00 )

 nodal point  x-disp     y-disp      z-disp      x-vel       y-vel       z-vel      x-accl      y-accl      z-accl      x-coor      y-coor      z-coor
    22626 -2.01838E-03 1.45810E-01-2.91689E-01-1.00764E-03 5.30206E-02-1.10420E-01-1.81922E-03 2.06737E-04 7.20879E-03 4.65736E+00-2.80450E+01-4.52734E+01



 n o d a l   p r i n t   o u t   f o r   t i m e  s t e p    7601                              ( at time 3.7996197E+00 )

 nodal point  x-rot      y-rot       z-rot       x-rot vel   y-rot vel   z-rot vel   x-rot acc   y-rot acc   z-rot acc
    22626 -4.49273E-04 1.05860E-06 3.97359E-06-1.40588E-04-2.99958E-06-4.10609E-06-5.38928E-05-5.30186E-05-6.92548E-05



 n o d a l   p r i n t   o u t   f o r   t i m e  s t e p    7801                              ( at time 3.8996097E+00 )

 nodal point  x-disp     y-disp      z-disp      x-vel       y-vel       z-vel      x-accl      y-accl      z-accl      x-coor      y-coor      z-coor
    22626 -2.11391E-03 1.51122E-01-3.02664E-01-9.11855E-04 5.34707E-02-1.08967E-01 9.57931E-04 4.50212E-03 1.45363E-02 4.65726E+00-2.80397E+01-4.52844E+01



 n o d a l   p r i n t   o u t   f o r   t i m e  s t e p    7801                              ( at time 3.8996097E+00 )

 nodal point  x-rot      y-rot       z-rot       x-rot vel   y-rot vel   z-rot vel   x-rot acc   y-rot acc   z-rot acc
    22626 -4.63840E-04 7.15785E-07 3.39085E-06-1.56073E-04-2.41360E-06-7.95328E-06-1.54864E-04 5.86039E-06-3.84757E-05



 n o d a l   p r i n t   o u t   f o r   t i m e  s t e p    8001                              ( at time 3.9995997E+00 )

 nodal point  x-disp     y-disp      z-disp      x-vel       y-vel       z-vel      x-accl      y-accl      z-accl      x-coor      y-coor      z-coor
    22626 -2.20414E-03 1.56505E-01-3.13461E-01-9.72857E-04 5.44574E-02-1.07102E-01-6.10077E-04 9.86799E-03 1.86437E-02 4.65717E+00-2.80343E+01-4.52952E+01



 n o d a l   p r i n t   o u t   f o r   t i m e  s t e p    8001                              ( at time 3.9995997E+00 )

 nodal point  x-rot      y-rot       z-rot       x-rot vel   y-rot vel   z-rot vel   x-rot acc   y-rot acc   z-rot acc
    22626 -4.79660E-04 1.83421E-07 2.20367E-06-1.56992E-04-6.16934E-06-1.22087E-05-9.18828E-06-3.75612E-05-4.25586E-05



 n o d a l   p r i n t   o u t   f o r   t i m e  s t e p    8201                              ( at time 4.0995897E+00 )

 nodal point  x-disp     y-disp      z-disp      x-vel       y-vel       z-vel      x-accl      y-accl      z-accl      x-coor      y-coor      z-coor
    22626 -2.30884E-03 1.62040E-01-3.24145E-01-1.17259E-03 5.61244E-02-1.06832E-01-1.99751E-03 1.66711E-02 2.70527E-03 4.65707E+00-2.80288E+01-4.53059E+01



 n o d a l   p r i n t   o u t   f o r   t i m e  s t e p    8201                              ( at time 4.0995897E+00 )

 nodal point  x-rot      y-rot       z-rot       x-rot vel   y-rot vel   z-rot vel   x-rot acc   y-rot acc   z-rot acc
    22626 -4.95292E-04-5.73891E-07 6.98448E-07-1.60206E-04-1.01486E-05-1.93006E-05-3.21457E-05-3.97967E-05-7.09263E-05



 n o d a l   p r i n t   o u t   f o r   t i m e  s t e p    8401                              ( at time 4.1995797E+00 )

 nodal point  x-disp     y-disp      z-disp      x-vel       y-vel       z-vel      x-accl      y-accl      z-accl      x-coor      y-coor      z-coor
    22626 -2.44620E-03 1.67793E-01-3.34767E-01-1.53070E-03 5.90135E-02-1.05482E-01-3.58148E-03 2.88941E-02 1.34957E-02 4.65693E+00-2.80230E+01-4.53165E+01



 n o d a l   p r i n t   o u t   f o r   t i m e  s t e p    8401                              ( at time 4.1995797E+00 )

 nodal point  x-rot      y-rot       z-rot       x-rot vel   y-rot vel   z-rot vel   x-rot acc   y-rot acc   z-rot acc
    22626 -5.12874E-04-1.70906E-06-1.64118E-06-1.88759E-04-1.04646E-05-2.38441E-05-2.85559E-04-3.15991E-06-4.54388E-05



 n o d a l   p r i n t   o u t   f o r   t i m e  s t e p    8601                              ( at time 4.2995697E+00 )

 nodal point  x-disp     y-disp      z-disp      x-vel       y-vel       z-vel      x-accl      y-accl      z-accl      x-coor      y-coor      z-coor
    22626 -2.59587E-03 1.73875E-01-3.45232E-01-1.43070E-03 6.25870E-02-1.03612E-01 1.00008E-03 3.57384E-02 1.87109E-02 4.65678E+00-2.80170E+01-4.53270E+01



 n o d a l   p r i n t   o u t   f o r   t i m e  s t e p    8601                              ( at time 4.2995697E+00 )

 nodal point  x-rot      y-rot       z-rot       x-rot vel   y-rot vel   z-rot vel   x-rot acc   y-rot acc   z-rot acc
    22626 -5.33379E-04-2.56159E-06-3.60369E-06-2.16314E-04-8.23217E-06-1.98261E-05-2.75583E-04 2.23263E-05 4.01834E-05



 n o d a l   p r i n t   o u t   f o r   t i m e  s t e p    8801                              ( at time 4.3995597E+00 )

 nodal point  x-disp     y-disp      z-disp      x-vel       y-vel       z-vel      x-accl      y-accl      z-accl      x-coor      y-coor      z-coor
    22626 -2.76197E-03 1.80283E-01-3.55451E-01-1.93100E-03 6.57773E-02-1.00695E-01-5.00352E-03 3.19059E-02 2.91705E-02 4.65661E+00-2.80105E+01-4.53372E+01



 n o d a l   p r i n t   o u t   f o r   t i m e  s t e p    8801                              ( at time 4.3995597E+00 )

 nodal point  x-rot      y-rot       z-rot       x-rot vel   y-rot vel   z-rot vel   x-rot acc   y-rot acc   z-rot acc
    22626 -5.56825E-04-3.63965E-06-6.32701E-06-2.51923E-04-1.53214E-05-3.42731E-05-3.56123E-04-7.08991E-05-1.44484E-04



 n o d a l   p r i n t   o u t   f o r   t i m e  s t e p    9001                              ( at time 4.4995497E+00 )

 nodal point  x-disp     y-disp      z-disp      x-vel       y-vel       z-vel      x-accl      y-accl      z-accl      x-coor      y-coor      z-coor
    22626 -3.01065E-03 1.87127E-01-3.65415E-01-2.73860E-03 7.12950E-02-9.91539E-02-8.07678E-03 5.51825E-02 1.54100E-02 4.65636E+00-2.80037E+01-4.53471E+01



 n o d a l   p r i n t   o u t   f o r   t i m e  s t e p    9001                              ( at time 4.4995497E+00 )

 nodal point  x-rot      y-rot       z-rot       x-rot vel   y-rot vel   z-rot vel   x-rot acc   y-rot acc   z-rot acc
    22626 -5.84970E-04-5.43512E-06-1.03933E-05-3.04896E-04-2.17251E-05-4.64037E-05-5.29781E-04-6.40432E-05-1.21318E-04



 n o d a l   p r i n t   o u t   f o r   t i m e  s t e p    9201                              ( at time 4.5995397E+00 )

 nodal point  x-disp     y-disp      z-disp      x-vel       y-vel       z-vel      x-accl      y-accl      z-accl      x-coor      y-coor      z-coor
    22626 -3.25785E-03 1.94618E-01-3.75295E-01-2.19301E-03 7.85773E-02-9.86253E-02 5.45650E-03 7.28302E-02 5.28657E-03 4.65612E+00-2.79962E+01-4.53570E+01



 n o d a l   p r i n t   o u t   f o r   t i m e  s t e p    9201                              ( at time 4.5995397E+00 )

 nodal point  x-rot      y-rot       z-rot       x-rot vel   y-rot vel   z-rot vel   x-rot acc   y-rot acc   z-rot acc
    22626 -6.17671E-04-7.36758E-06-1.46266E-05-3.48440E-04-1.76755E-05-4.10182E-05-4.35481E-04 4.04995E-05 5.38604E-05



 n o d a l   p r i n t   o u t   f o r   t i m e  s t e p    9401                              ( at time 4.6995297E+00 )

 nodal point  x-disp     y-disp      z-disp      x-vel       y-vel       z-vel      x-accl      y-accl      z-accl      x-coor      y-coor      z-coor
    22626 -3.48158E-03 2.02803E-01-3.85079E-01-2.40669E-03 8.55787E-02-9.68125E-02-2.13701E-03 7.00218E-02 1.81297E-02 4.65589E+00-2.79880E+01-4.53668E+01



 n o d a l   p r i n t   o u t   f o r   t i m e  s t e p    9401                              ( at time 4.6995297E+00 )

 nodal point  x-rot      y-rot       z-rot       x-rot vel   y-rot vel   z-rot vel   x-rot acc   y-rot acc   z-rot acc
    22626 -6.55602E-04-9.32348E-06-1.88737E-05-4.14621E-04-2.05072E-05-4.24158E-05-6.61876E-04-2.83197E-05-1.39779E-05



 n o d a l   p r i n t   o u t   f o r   t i m e  s t e p    9601                              ( at time 4.7995197E+00 )

 nodal point  x-disp     y-disp      z-disp      x-vel       y-vel       z-vel      x-accl      y-accl      z-accl      x-coor      y-coor      z-coor
    22626 -3.73935E-03 2.11762E-01-3.94659E-01-2.90954E-03 9.41553E-02-9.42765E-02-5.02905E-03 8.57739E-02 2.53631E-02 4.65564E+00-2.79791E+01-4.53764E+01



 n o d a l   p r i n t   o u t   f o r   t i m e  s t e p    9601                              ( at time 4.7995197E+00 )

 nodal point  x-rot      y-rot       z-rot       x-rot vel   y-rot vel   z-rot vel   x-rot acc   y-rot acc   z-rot acc
    22626 -7.00990E-04-1.22171E-05-2.39137E-05-4.93508E-04-3.24218E-05-5.71493E-05-7.88950E-04-1.19158E-04-1.47350E-04



 n o d a l   p r i n t   o u t   f o r   t i m e  s t e p    9801                              ( at time 4.8995097E+00 )

 nodal point  x-disp     y-disp      z-disp      x-vel       y-vel       z-vel      x-accl      y-accl      z-accl      x-coor      y-coor      z-coor
    22626 -4.03614E-03 2.21645E-01-4.03959E-01-2.99888E-03 1.03680E-01-9.18484E-02-8.93466E-04 9.52522E-02 2.42832E-02 4.65534E+00-2.79692E+01-4.53857E+01



 n o d a l   p r i n t   o u t   f o r   t i m e  s t e p    9801                              ( at time 4.8995097E+00 )

 nodal point  x-rot      y-rot       z-rot       x-rot vel   y-rot vel   z-rot vel   x-rot acc   y-rot acc   z-rot acc
    22626 -7.54109E-04-1.54397E-05-2.99919E-05-5.62274E-04-2.98447E-05-6.01652E-05-6.87729E-04 2.57735E-05-3.01620E-05



 n o d a l   p r i n t   o u t   f o r   t i m e  s t e p   10001                              ( at time 4.9994997E+00 )

 nodal point  x-disp     y-disp      z-disp      x-vel       y-vel       z-vel      x-accl      y-accl      z-accl      x-coor      y-coor      z-coor
    22626 -4.29719E-03 2.32561E-01-4.13138E-01-2.33359E-03 1.14997E-01-9.18117E-02 6.65351E-03 1.13181E-01 3.67424E-04 4.65508E+00-2.79583E+01-4.53949E+01



 n o d a l   p r i n t   o u t   f o r   t i m e  s t e p   10001                              ( at time 4.9994997E+00 )

 nodal point  x-rot      y-rot       z-rot       x-rot vel   y-rot vel   z-rot vel   x-rot acc   y-rot acc   z-rot acc
    22626 -8.14279E-04-1.79300E-05-3.52443E-05-6.43827E-04-2.49579E-05-4.84542E-05-8.15613E-04 4.88729E-05 1.17122E-04



 n o d a l   p r i n t   o u t   f o r   t i m e  s t e p   10202                              ( at time 5.0999896E+00 )

 nodal point  x-disp     y-disp      z-disp      x-vel       y-vel       z-vel      x-accl      y-accl      z-accl      x-coor      y-coor      z-coor
    22626 -4.56414E-03 2.44719E-01-4.22331E-01-3.21371E-03 1.27103E-01-9.06004E-02-8.75830E-03 1.20471E-01 1.20538E-02 4.65481E+00-2.79461E+01-4.54040E+01



 n o d a l   p r i n t   o u t   f o r   t i m e  s t e p   10202                              ( at time 5.0999896E+00 )

 nodal point  x-rot      y-rot       z-rot       x-rot vel   y-rot vel   z-rot vel   x-rot acc   y-rot acc   z-rot acc
    22626 -8.84079E-04-2.09262E-05-4.03950E-05-7.50618E-04-3.48222E-05-5.85708E-05-1.06270E-03-9.81633E-05-1.00673E-04



 n o d a l   p r i n t   o u t   f o r   t i m e  s t e p   10402                              ( at time 5.1999796E+00 )

 nodal point  x-disp     y-disp      z-disp      x-vel       y-vel       z-vel      x-accl      y-accl      z-accl      x-coor      y-coor      z-coor
    22626 -4.91051E-03 2.58060E-01-4.31287E-01-3.42937E-03 1.39738E-01-8.85995E-02-2.15676E-03 1.26365E-01 2.00105E-02 4.65446E+00-2.79328E+01-4.54130E+01



 n o d a l   p r i n t   o u t   f o r   t i m e  s t e p   10402                              ( at time 5.1999796E+00 )

 nodal point  x-rot      y-rot       z-rot       x-rot vel   y-rot vel   z-rot vel   x-rot acc   y-rot acc   z-rot acc
    22626 -9.64047E-04-2.44204E-05-4.65485E-05-8.54122E-04-2.76067E-05-5.79430E-05-1.03514E-03 7.21622E-05 6.27877E-06



 n o d a l   p r i n t   o u t   f o r   t i m e  s t e p   10602                              ( at time 5.2999696E+00 )

 nodal point  x-disp     y-disp      z-disp      x-vel       y-vel       z-vel      x-accl      y-accl      z-accl      x-coor      y-coor      z-coor
    22626 -5.25039E-03 2.72721E-01-4.40055E-01-3.06493E-03 1.53640E-01-8.71864E-02 3.64475E-03 1.39031E-01 1.41329E-02 4.65412E+00-2.79181E+01-4.54218E+01



 n o d a l   p r i n t   o u t   f o r   t i m e  s t e p   10602                              ( at time 5.2999696E+00 )

 nodal point  x-rot      y-rot       z-rot       x-rot vel   y-rot vel   z-rot vel   x-rot acc   y-rot acc   z-rot acc
    22626 -1.05394E-03-2.67591E-05-5.18066E-05-9.55989E-04-2.22108E-05-5.24745E-05-1.01878E-03 5.39651E-05 5.46902E-05



 n o d a l   p r i n t   o u t   f o r   t i m e  s t e p   10802                              ( at time 5.3999596E+00 )

 nodal point  x-disp     y-disp      z-disp      x-vel       y-vel       z-vel      x-accl      y-accl      z-accl      x-coor      y-coor      z-coor
    22626 -5.57159E-03 2.88831E-01-4.48719E-01-3.62618E-03 1.68545E-01-8.63332E-02-5.61310E-03 1.49067E-01 8.53230E-03 4.65380E+00-2.79020E+01-4.54304E+01



 n o d a l   p r i n t   o u t   f o r   t i m e  s t e p   10802                              ( at time 5.3999596E+00 )

 nodal point  x-rot      y-rot       z-rot       x-rot vel   y-rot vel   z-rot vel   x-rot acc   y-rot acc   z-rot acc
    22626 -1.15485E-03-2.95493E-05-5.74101E-05-1.06167E-03-3.41844E-05-5.68591E-05-1.05691E-03-1.19749E-04-4.38508E-05



 n o d a l   p r i n t   o u t   f o r   t i m e  s t e p   11002                              ( at time 5.4999496E+00 )

 nodal point  x-disp     y-disp      z-disp      x-vel       y-vel       z-vel      x-accl      y-accl      z-accl      x-coor      y-coor      z-coor
    22626 -5.94309E-03 3.06434E-01-4.57305E-01-3.77690E-03 1.83843E-01-8.50726E-02-1.50730E-03 1.52996E-01 1.26080E-02 4.65343E+00-2.78844E+01-4.54390E+01



 n o d a l   p r i n t   o u t   f o r   t i m e  s t e p   11002                              ( at time 5.4999496E+00 )

 nodal point  x-rot      y-rot       z-rot       x-rot vel   y-rot vel   z-rot vel   x-rot acc   y-rot acc   z-rot acc
    22626 -1.26667E-03-3.28905E-05-6.31371E-05-1.17154E-03-3.44996E-05-5.89708E-05-1.09885E-03-3.15241E-06-2.11187E-05



 n o d a l   p r i n t   o u t   f o r   t i m e  s t e p   11202                              ( at time 5.5999396E+00 )

 nodal point  x-disp     y-disp      z-disp      x-vel       y-vel       z-vel      x-accl      y-accl      z-accl      x-coor      y-coor      z-coor
    22626 -6.29922E-03 3.25604E-01-4.65718E-01-3.16514E-03 1.99784E-01-8.29996E-02 6.11814E-03 1.59429E-01 2.07315E-02 4.65308E+00-2.78652E+01-4.54474E+01



 n o d a l   p r i n t   o u t   f o r   t i m e  s t e p   11202                              ( at time 5.5999396E+00 )

 nodal point  x-rot      y-rot       z-rot       x-rot vel   y-rot vel   z-rot vel   x-rot acc   y-rot acc   z-rot acc
    22626 -1.39044E-03-3.59140E-05-6.83365E-05-1.29702E-03-2.05946E-05-4.35866E-05-1.25495E-03 1.39064E-04 1.53857E-04



 n o d a l   p r i n t   o u t   f o r   t i m e  s t e p   11402                              ( at time 5.6999296E+00 )

 nodal point  x-disp     y-disp      z-disp      x-vel       y-vel       z-vel      x-accl      y-accl      z-accl      x-coor      y-coor      z-coor
    22626 -6.58040E-03 3.46374E-01-4.73898E-01-2.45233E-03 2.15722E-01-8.05087E-02 7.12879E-03 1.59392E-01 2.49114E-02 4.65279E+00-2.78445E+01-4.54556E+01



 n o d a l   p r i n t   o u t   f o r   t i m e  s t e p   11402                              ( at time 5.6999296E+00 )

 nodal point  x-rot      y-rot       z-rot       x-rot vel   y-rot vel   z-rot vel   x-rot acc   y-rot acc   z-rot acc
    22626 -1.52635E-03-3.78823E-05-7.25224E-05-1.41468E-03-2.41617E-05-4.44566E-05-1.17670E-03-3.56735E-05-8.69990E-06



 n o d a l   p r i n t   o u t   f o r   t i m e  s t e p   11602                              ( at time 5.7999195E+00 )

 nodal point  x-disp     y-disp      z-disp      x-vel       y-vel       z-vel      x-accl      y-accl      z-accl      x-coor      y-coor      z-coor
    22626 -6.88268E-03 3.68809E-01-4.81780E-01-3.71327E-03 2.32788E-01-7.76037E-02-1.26107E-02 1.70676E-01 2.90530E-02 4.65249E+00-2.78220E+01-4.54635E+01



 n o d a l   p r i n t   o u t   f o r   t i m e  s t e p   11602                              ( at time 5.7999195E+00 )

 nodal point  x-rot      y-rot       z-rot       x-rot vel   y-rot vel   z-rot vel   x-rot acc   y-rot acc   z-rot acc
    22626 -1.67421E-03-4.12587E-05-7.75252E-05-1.54136E-03-3.72267E-05-5.35389E-05-1.26691E-03-1.30664E-04-9.08325E-05



 n o d a l   p r i n t   o u t   f o r   t i m e  s t e p   11802                              ( at time 5.8999095E+00 )

 nodal point  x-disp     y-disp      z-disp      x-vel       y-vel       z-vel      x-accl      y-accl      z-accl      x-coor      y-coor      z-coor
    22626 -7.22456E-03 3.93006E-01-4.89456E-01-2.87875E-03 2.51045E-01-7.63546E-02 8.34613E-03 1.82591E-01 1.24922E-02 4.65215E+00-2.77978E+01-4.54712E+01



 n o d a l   p r i n t   o u t   f o r   t i m e  s t e p   11802                              ( at time 5.8999095E+00 )

 nodal point  x-rot      y-rot       z-rot       x-rot vel   y-rot vel   z-rot vel   x-rot acc   y-rot acc   z-rot acc
    22626 -1.83546E-03-4.39521E-05-8.26523E-05-1.68432E-03-2.07095E-05-4.61467E-05-1.42971E-03 1.65189E-04 7.39297E-05



 n o d a l   p r i n t   o u t   f o r   t i m e  s t e p   12002                              ( at time 5.9998995E+00 )

 nodal point  x-disp     y-disp      z-disp      x-vel       y-vel       z-vel      x-accl      y-accl      z-accl      x-coor      y-coor      z-coor
    22626 -7.49384E-03 4.19051E-01-4.97011E-01-2.58864E-03 2.69421E-01-7.46205E-02 2.90135E-03 1.83775E-01 1.73434E-02 4.65188E+00-2.77718E+01-4.54787E+01



 n o d a l   p r i n t   o u t   f o r   t i m e  s t e p   12002                              ( at time 5.9998995E+00 )

 nodal point  x-rot      y-rot       z-rot       x-rot vel   y-rot vel   z-rot vel   x-rot acc   y-rot acc   z-rot acc
    22626 -2.01061E-03-4.57648E-05-8.65835E-05-1.81463E-03-1.84344E-05-3.98791E-05-1.30327E-03 2.27526E-05 6.26814E-05



 n o d a l   p r i n t   o u t   f o r   t i m e  s t e p   12202                              ( at time 6.0998895E+00 )

 nodal point  x-disp     y-disp      z-disp      x-vel       y-vel       z-vel      x-accl      y-accl      z-accl      x-coor      y-coor      z-coor
    22626 -7.77466E-03 4.46961E-01-5.04331E-01-3.09309E-03 2.88656E-01-7.19636E-02-5.04504E-03 1.92370E-01 2.65715E-02 4.65160E+00-2.77439E+01-4.54860E+01



 n o d a l   p r i n t   o u t   f o r   t i m e  s t e p   12202                              ( at time 6.0998895E+00 )

 nodal point  x-rot      y-rot       z-rot       x-rot vel   y-rot vel   z-rot vel   x-rot acc   y-rot acc   z-rot acc
    22626 -2.19908E-03-4.83839E-05-9.07583E-05-1.95653E-03-2.90016E-05-3.87999E-05-1.41916E-03-1.05682E-04 1.07940E-05



 n o d a l   p r i n t   o u t   f o r   t i m e  s t e p   12402                              ( at time 6.1998795E+00 )

 nodal point  x-disp     y-disp      z-disp      x-vel       y-vel       z-vel      x-accl      y-accl      z-accl      x-coor      y-coor      z-coor
    22626 -8.06795E-03 4.76854E-01-5.11382E-01-2.49777E-03 3.08903E-01-6.98127E-02 5.95390E-03 2.02488E-01 2.15110E-02 4.65131E+00-2.77140E+01-4.54931E+01



 n o d a l   p r i n t   o u t   f o r   t i m e  s t e p   12402                              ( at time 6.1998795E+00 )

 nodal point  x-rot      y-rot       z-rot       x-rot vel   y-rot vel   z-rot vel   x-rot acc   y-rot acc   z-rot acc
    22626 -2.40224E-03-5.00746E-05-9.42813E-05-2.10440E-03-7.89706E-06-3.04538E-05-1.47884E-03 2.11067E-04 8.34694E-05



 n o d a l   p r i n t   o u t   f o r   t i m e  s t e p   12602                              ( at time 6.2998695E+00 )

 nodal point  x-disp     y-disp      z-disp      x-vel       y-vel       z-vel      x-accl      y-accl      z-accl      x-coor      y-coor      z-coor
    22626 -8.29492E-03 5.08774E-01-5.18294E-01-2.10830E-03 3.29407E-01-6.84235E-02 3.89503E-03 2.05070E-01 1.38928E-02 4.65108E+00-2.76821E+01-4.55000E+01



 n o d a l   p r i n t   o u t   f o r   t i m e  s t e p   12602                              ( at time 6.2998695E+00 )

 nodal point  x-rot      y-rot       z-rot       x-rot vel   y-rot vel   z-rot vel   x-rot acc   y-rot acc   z-rot acc
    22626 -2.61971E-03-5.06178E-05-9.66662E-05-2.23784E-03-8.79705E-06-2.60392E-05-1.33454E-03-9.00083E-06 4.41497E-05



 n o d a l   p r i n t   o u t   f o r   t i m e  s t e p   12802                              ( at time 6.3998595E+00 )

 nodal point  x-disp     y-disp      z-disp      x-vel       y-vel       z-vel      x-accl      y-accl      z-accl      x-coor      y-coor      z-coor
    22626 -8.53415E-03 5.42736E-01-5.25027E-01-2.75259E-03 3.49915E-01-6.54130E-02-6.44354E-03 2.05095E-01 3.01082E-02 4.65084E+00-2.76481E+01-4.55067E+01



 n o d a l   p r i n t   o u t   f o r   t i m e  s t e p   12802                              ( at time 6.3998595E+00 )

 nodal point  x-rot      y-rot       z-rot       x-rot vel   y-rot vel   z-rot vel   x-rot acc   y-rot acc   z-rot acc
    22626 -2.85176E-03-5.20860E-05-9.98270E-05-2.39240E-03-2.23866E-05-3.41172E-05-1.54571E-03-1.35909E-04-8.07876E-05



 n o d a l   p r i n t   o u t   f o r   t i m e  s t e p   13002                              ( at time 6.4998495E+00 )

 nodal point  x-disp     y-disp      z-disp      x-vel       y-vel       z-vel      x-accl      y-accl      z-accl      x-coor      y-coor      z-coor
    22626 -8.79400E-03 5.78739E-01-5.31378E-01-2.48257E-03 3.70160E-01-6.18441E-02 2.70051E-03 2.02471E-01 3.56929E-02 4.65058E+00-2.76121E+01-4.55131E+01



 n o d a l   p r i n t   o u t   f o r   t i m e  s t e p   13002                              ( at time 6.4998495E+00 )

 nodal point  x-rot      y-rot       z-rot       x-rot vel   y-rot vel   z-rot vel   x-rot acc   y-rot acc   z-rot acc
    22626 -3.09967E-03-5.40059E-05-1.03051E-04-2.55449E-03-4.44518E-06-2.48457E-05-1.62109E-03 1.79432E-04 9.27238E-05



 n o d a l   p r i n t   o u t   f o r   t i m e  s t e p   13202                              ( at time 6.5998395E+00 )

 nodal point  x-disp     y-disp      z-disp      x-vel       y-vel       z-vel      x-accl      y-accl      z-accl      x-coor      y-coor      z-coor
    22626 -8.95320E-03 6.16816E-01-5.37372E-01-7.99538E-04 3.90723E-01-5.81359E-02 1.68319E-02 2.05650E-01 3.70859E-02 4.65042E+00-2.75740E+01-4.55191E+01



 n o d a l   p r i n t   o u t   f o r   t i m e  s t e p   13202                              ( at time 6.5998395E+00 )

 nodal point  x-rot      y-rot       z-rot       x-rot vel   y-rot vel   z-rot vel   x-rot acc   y-rot acc   z-rot acc
    22626 -3.36278E-03-5.34801E-05-1.04477E-04-2.69883E-03 5.22355E-06-1.77746E-05-1.44354E-03 9.66966E-05 7.07186E-05



 n o d a l   p r i n t   o u t   f o r   t i m e  s t e p   13402                              ( at time 6.6998295E+00 )

 nodal point  x-disp     y-disp      z-disp      x-vel       y-vel       z-vel      x-accl      y-accl      z-accl      x-coor      y-coor      z-coor
    22626 -9.06811E-03 6.56976E-01-5.42980E-01-1.86243E-03 4.12076E-01-5.45057E-02-1.06300E-02 2.13550E-01 3.63054E-02 4.65031E+00-2.75339E+01-4.55247E+01



 n o d a l   p r i n t   o u t   f o r   t i m e  s t e p   13402                              ( at time 6.6998295E+00 )

 nodal point  x-rot      y-rot       z-rot       x-rot vel   y-rot vel   z-rot vel   x-rot acc   y-rot acc   z-rot acc
    22626 -3.64034E-03-5.40339E-05-1.06071E-04-2.85186E-03-9.20525E-06-2.28574E-05-1.53040E-03-1.44303E-04-5.08332E-05



 n o d a l   p r i n t   o u t   f o r   t i m e  s t e p   13602                              ( at time 6.7998195E+00 )

 nodal point  x-disp     y-disp      z-disp      x-vel       y-vel       z-vel      x-accl      y-accl      z-accl      x-coor      y-coor      z-coor
    22626 -9.25658E-03 6.99253E-01-5.48238E-01-1.61692E-03 4.33448E-01-5.07838E-02 2.45526E-03 2.13742E-01 3.72230E-02 4.65012E+00-2.74916E+01-4.55300E+01



 n o d a l   p r i n t   o u t   f o r   t i m e  s t e p   13602                              ( at time 6.7998195E+00 )

 nodal point  x-rot      y-rot       z-rot       x-rot vel   y-rot vel   z-rot vel   x-rot acc   y-rot acc   z-rot acc
    22626 -3.93412E-03-5.48121E-05-1.08219E-04-3.02323E-03-2.22018E-06-1.47407E-05-1.71390E-03 6.98577E-05 8.11747E-05



 n o d a l   p r i n t   o u t   f o r   t i m e  s t e p   13802                              ( at time 6.8998095E+00 )

 nodal point  x-disp     y-disp      z-disp      x-vel       y-vel       z-vel      x-accl      y-accl      z-accl      x-coor      y-coor      z-coor
    22626 -9.36104E-03 7.43680E-01-5.53074E-01-9.59731E-04 4.54824E-01-4.59116E-02 6.57260E-03 2.13785E-01 4.87269E-02 4.65001E+00-2.74471E+01-4.55348E+01



 n o d a l   p r i n t   o u t   f o r   t i m e  s t e p   13802                              ( at time 6.8998095E+00 )

 nodal point  x-rot      y-rot       z-rot       x-rot vel   y-rot vel   z-rot vel   x-rot acc   y-rot acc   z-rot acc
    22626 -4.24505E-03-5.42746E-05-1.09108E-04-3.17818E-03 1.10930E-05-7.87539E-06-1.54972E-03 1.33145E-04 6.86603E-05



 n o d a l   p r i n t   o u t   f o r   t i m e  s t e p   14002                              ( at time 6.9997995E+00 )

 nodal point  x-disp     y-disp      z-disp      x-vel       y-vel       z-vel      x-accl      y-accl      z-accl      x-coor      y-coor      z-coor
    22626 -9.43904E-03 7.90244E-01-5.57405E-01-7.73805E-04 4.76454E-01-4.10283E-02 1.85944E-03 2.16320E-01 4.88375E-02 4.64994E+00-2.74006E+01-4.55391E+01



 n o d a l   p r i n t   o u t   f o r   t i m e  s t e p   14002                              ( at time 6.9997995E+00 )

 nodal point  x-rot      y-rot       z-rot       x-rot vel   y-rot vel   z-rot vel   x-rot acc   y-rot acc   z-rot acc
    22626 -4.57120E-03-5.38109E-05-1.09487E-04-3.33019E-03 8.27006E-07-4.51215E-06-1.52021E-03-1.02670E-04 3.36358E-05



 n o d a l   p r i n t   o u t   f o r   t i m e  s t e p   14202                              ( at time 7.0997895E+00 )

 nodal point  x-disp     y-disp      z-disp      x-vel       y-vel       z-vel      x-accl      y-accl      z-accl      x-coor      y-coor      z-coor
    22626 -9.53621E-03 8.38988E-01-5.61251E-01-1.30015E-03 4.98426E-01-3.58232E-02-5.26397E-03 2.19747E-01 5.20558E-02 4.64984E+00-2.73518E+01-4.55430E+01



 n o d a l   p r i n t   o u t   f o r   t i m e  s t e p   14202                              ( at time 7.0997895E+00 )

 nodal point  x-rot      y-rot       z-rot       x-rot vel   y-rot vel   z-rot vel   x-rot acc   y-rot acc   z-rot acc
    22626 -4.91329E-03-5.33086E-05-1.10265E-04-3.49756E-03 9.57406E-06-1.21238E-05-1.67385E-03 8.74789E-05-7.61237E-05



 n o d a l   p r i n t   o u t   f o r   t i m e  s t e p   14402                              ( at time 7.1997794E+00 )

 nodal point  x-disp     y-disp      z-disp      x-vel       y-vel       z-vel      x-accl      y-accl      z-accl      x-coor      y-coor      z-coor
    22626 -9.62008E-03 8.89912E-01-5.64517E-01-2.92237E-04 5.19986E-01-2.92493E-02 1.00802E-02 2.15614E-01 6.57463E-02 4.64976E+00-2.73009E+01-4.55462E+01



 n o d a l   p r i n t   o u t   f o r   t i m e  s t e p   14402                              ( at time 7.1997794E+00 )

 nodal point  x-rot      y-rot       z-rot       x-rot vel   y-rot vel   z-rot vel   x-rot acc   y-rot acc   z-rot acc
    22626 -5.27249E-03-5.22495E-05-1.10685E-04-3.66579E-03 1.11803E-05-1.30050E-06-1.68251E-03 1.60645E-05 1.08244E-04



 n o d a l   p r i n t   o u t   f o r   t i m e  s t e p   14602                              ( at time 7.2997694E+00 )

 nodal point  x-disp     y-disp      z-disp      x-vel       y-vel       z-vel      x-accl      y-accl      z-accl      x-coor      y-coor      z-coor
    22626 -9.65417E-03 9.42967E-01-5.67122E-01-4.04079E-04 5.41489E-01-2.27162E-02-1.11853E-03 2.15054E-01 6.53370E-02 4.64972E+00-2.72479E+01-4.55488E+01



 n o d a l   p r i n t   o u t   f o r   t i m e  s t e p   14602                              ( at time 7.2997694E+00 )

 nodal point  x-rot      y-rot       z-rot       x-rot vel   y-rot vel   z-rot vel   x-rot acc   y-rot acc   z-rot acc
    22626 -5.64830E-03-5.11281E-05-1.10200E-04-3.83450E-03 9.40235E-06-3.46375E-07-1.68725E-03-1.77818E-05 9.54225E-06



 n o d a l   p r i n t   o u t   f o r   t i m e  s t e p   14802                              ( at time 7.3997594E+00 )

 nodal point  x-disp     y-disp      z-disp      x-vel       y-vel       z-vel      x-accl      y-accl      z-accl      x-coor      y-coor      z-coor
    22626 -9.68265E-03 9.98157E-01-5.68964E-01-3.60563E-04 5.62442E-01-1.36875E-02 4.35206E-04 2.09555E-01 9.02967E-02 4.64969E+00-2.71927E+01-4.55507E+01



 n o d a l   p r i n t   o u t   f o r   t i m e  s t e p   14802                              ( at time 7.3997594E+00 )

 nodal point  x-rot      y-rot       z-rot       x-rot vel   y-rot vel   z-rot vel   x-rot acc   y-rot acc   z-rot acc
    22626 -6.04123E-03-5.03499E-05-1.11291E-04-4.00388E-03 1.09276E-05-7.62905E-06-1.69392E-03 1.52545E-05-7.28341E-05



 n o d a l   p r i n t   o u t   f o r   t i m e  s t e p   15002                              ( at time 7.4997494E+00 )

 nodal point  x-disp     y-disp      z-disp      x-vel       y-vel       z-vel      x-accl      y-accl      z-accl      x-coor      y-coor      z-coor
    22626 -9.68481E-03 1.05546E+00-5.69882E-01 2.82743E-04 5.83927E-01-4.94045E-03 6.43368E-03 2.14871E-01 8.74787E-02 4.64969E+00-2.71354E+01-4.55516E+01



 n o d a l   p r i n t   o u t   f o r   t i m e  s t e p   15002                              ( at time 7.4997494E+00 )

 nodal point  x-rot      y-rot       z-rot       x-rot vel   y-rot vel   z-rot vel   x-rot acc   y-rot acc   z-rot acc
    22626 -6.45109E-03-4.88547E-05-1.11478E-04-4.17931E-03 1.83486E-05-8.26888E-07-1.75447E-03 7.42165E-05 6.80282E-05



 n o d a l   p r i n t   o u t   f o r   t i m e  s t e p   15202                              ( at time 7.5997394E+00 )

 nodal point  x-disp     y-disp      z-disp      x-vel       y-vel       z-vel      x-accl      y-accl      z-accl      x-coor      y-coor      z-coor
    22626 -9.65181E-03 1.11488E+00-5.69941E-01 3.43565E-04 6.04883E-01 4.09851E-03 6.08286E-04 2.09577E-01 9.03987E-02 4.64972E+00-2.70759E+01-4.55517E+01



 n o d a l   p r i n t   o u t   f o r   t i m e  s t e p   15202                              ( at time 7.5997394E+00 )

 nodal point  x-rot      y-rot       z-rot       x-rot vel   y-rot vel   z-rot vel   x-rot acc   y-rot acc   z-rot acc
    22626 -6.87891E-03-4.81168E-05-1.12506E-04-4.35794E-03 3.69202E-07-1.97302E-05-1.78649E-03-1.79812E-04-1.89052E-04



 n o d a l   p r i n t   o u t   f o r   t i m e  s t e p   15402                              ( at time 7.6997294E+00 )

 nodal point  x-disp     y-disp      z-disp      x-vel       y-vel       z-vel      x-accl      y-accl      z-accl      x-coor      y-coor      z-coor
    22626 -9.59529E-03 1.17647E+00-5.69115E-01 7.83242E-04 6.26635E-01 1.30263E-02 4.39721E-03 2.17543E-01 8.92872E-02 4.64978E+00-2.70144E+01-4.55508E+01



 n o d a l   p r i n t   o u t   f o r   t i m e  s t e p   15402                              ( at time 7.6997294E+00 )

 nodal point  x-rot      y-rot       z-rot       x-rot vel   y-rot vel   z-rot vel   x-rot acc   y-rot acc   z-rot acc
    22626 -7.32493E-03-4.79735E-05-1.14058E-04-4.54227E-03 7.23974E-06-6.80320E-06-1.84348E-03 6.87123E-05 1.29283E-04



 n o d a l   p r i n t   o u t   f o r   t i m e  s t e p   15602                              ( at time 7.7997194E+00 )

 nodal point  x-disp     y-disp      z-disp      x-vel       y-vel       z-vel      x-accl      y-accl      z-accl      x-coor      y-coor      z-coor
    22626 -9.46882E-03 1.24018E+00-5.67293E-01 1.45239E-03 6.47751E-01 2.38200E-02 6.69215E-03 2.11182E-01 1.07948E-01 4.64991E+00-2.69507E+01-4.55490E+01



 n o d a l   p r i n t   o u t   f o r   t i m e  s t e p   15602                              ( at time 7.7997194E+00 )

 nodal point  x-rot      y-rot       z-rot       x-rot vel   y-rot vel   z-rot vel   x-rot acc   y-rot acc   z-rot acc
    22626 -7.78913E-03-4.71762E-05-1.14697E-04-4.72738E-03 8.06341E-06-1.20729E-05-1.85131E-03 8.23747E-06-5.27018E-05



 n o d a l   p r i n t   o u t   f o r   t i m e  s t e p   15802                              ( at time 7.8997094E+00 )

 nodal point  x-disp     y-disp      z-disp      x-vel       y-vel       z-vel      x-accl      y-accl      z-accl      x-coor      y-coor      z-coor
    22626 -9.34833E-03 1.30606E+00-5.64404E-01 1.30366E-03 6.69785E-01 3.39384E-02-1.48744E-03 2.20362E-01 1.01194E-01 4.65003E+00-2.68848E+01-4.55461E+01



 n o d a l   p r i n t   o u t   f o r   t i m e  s t e p   15802                              ( at time 7.8997094E+00 )

 nodal point  x-rot      y-rot       z-rot       x-rot vel   y-rot vel   z-rot vel   x-rot acc   y-rot acc   z-rot acc
    22626 -8.27197E-03-4.66630E-05-1.16214E-04-4.91718E-03 1.37061E-06-1.36783E-05-1.89819E-03-6.69347E-05-1.60561E-05



 n o d a l   p r i n t   o u t   f o r   t i m e  s t e p   16002                              ( at time 7.9996994E+00 )

 nodal point  x-disp     y-disp      z-disp      x-vel       y-vel       z-vel      x-accl      y-accl      z-accl      x-coor      y-coor      z-coor
    22626 -9.19058E-03 1.37413E+00-5.60481E-01 1.41484E-03 6.91766E-01 4.44728E-02 1.11192E-03 2.19835E-01 1.05354E-01 4.65018E+00-2.68167E+01-4.55422E+01



 n o d a l   p r i n t   o u t   f o r   t i m e  s t e p   16002                              ( at time 7.9996994E+00 )

 nodal point  x-rot      y-rot       z-rot       x-rot vel   y-rot vel   z-rot vel   x-rot acc   y-rot acc   z-rot acc
    22626 -8.77295E-03-4.65431E-05-1.17661E-04-5.10242E-03 1.50461E-06-1.63532E-05-1.85262E-03 1.34010E-06-2.67517E-05



 n o d a l   p r i n t   o u t   f o r   t i m e  s t e p   16202                              ( at time 8.0996894E+00 )

 nodal point  x-disp     y-disp      z-disp      x-vel       y-vel       z-vel      x-accl      y-accl      z-accl      x-coor      y-coor      z-coor
    22626 -9.05192E-03 1.44437E+00-5.55443E-01 1.64937E-03 7.13014E-01 5.62433E-02 2.34553E-03 2.12500E-01 1.17717E-01 4.65032E+00-2.67465E+01-4.55372E+01



 n o d a l   p r i n t   o u t   f o r   t i m e  s t e p   16202                              ( at time 8.0996894E+00 )

 nodal point  x-rot      y-rot       z-rot       x-rot vel   y-rot vel   z-rot vel   x-rot acc   y-rot acc   z-rot acc
    22626 -9.29251E-03-4.63579E-05-1.19671E-04-5.28487E-03-9.52227E-07-2.91589E-05-1.82468E-03-2.45708E-05-1.28070E-04



 n o d a l   p r i n t   o u t   f o r   t i m e  s t e p   16402                              ( at time 8.1996794E+00 )

 nodal point  x-disp     y-disp      z-disp      x-vel       y-vel       z-vel      x-accl      y-accl      z-accl      x-coor      y-coor      z-coor
    22626 -8.88872E-03 1.51675E+00-5.49191E-01 1.32784E-03 7.34432E-01 6.88202E-02-3.21564E-03 2.14198E-01 1.25782E-01 4.65049E+00-2.66741E+01-4.55309E+01



 n o d a l   p r i n t   o u t   f o r   t i m e  s t e p   16402                              ( at time 8.1996794E+00 )

 nodal point  x-rot      y-rot       z-rot       x-rot vel   y-rot vel   z-rot vel   x-rot acc   y-rot acc   z-rot acc
    22626 -9.83095E-03-4.68618E-05-1.22572E-04-5.47736E-03-9.55093E-06-3.42527E-05-1.92512E-03-8.59958E-05-5.09429E-05



 n o d a l   p r i n t   o u t   f o r   t i m e  s t e p   16602                              ( at time 8.2996694E+00 )

 nodal point  x-disp     y-disp      z-disp      x-vel       y-vel       z-vel      x-accl      y-accl      z-accl      x-coor      y-coor      z-coor
    22626 -8.78153E-03 1.59122E+00-5.41624E-01 9.15543E-04 7.54881E-01 8.23119E-02-4.12337E-03 2.04515E-01 1.34931E-01 4.65059E+00-2.65996E+01-4.55233E+01



 n o d a l   p r i n t   o u t   f o r   t i m e  s t e p   16602                              ( at time 8.2996694E+00 )

 nodal point  x-rot      y-rot       z-rot       x-rot vel   y-rot vel   z-rot vel   x-rot acc   y-rot acc   z-rot acc
    22626 -1.03886E-02-4.74335E-05-1.26794E-04-5.65892E-03-1.06700E-06-5.31426E-05-1.81580E-03 8.48479E-05-1.88919E-04



 n o d a l   p r i n t   o u t   f o r   t i m e  s t e p   16802                              ( at time 8.3996594E+00 )

 nodal point  x-disp     y-disp      z-disp      x-vel       y-vel       z-vel      x-accl      y-accl      z-accl      x-coor      y-coor      z-coor
    22626 -8.68904E-03 1.66779E+00-5.32737E-01 1.15105E-03 7.76072E-01 9.52920E-02 2.35534E-03 2.11925E-01 1.29814E-01 4.65069E+00-2.65230E+01-4.55145E+01



 n o d a l   p r i n t   o u t   f o r   t i m e  s t e p   16802                              ( at time 8.3996594E+00 )

 nodal point  x-rot      y-rot       z-rot       x-rot vel   y-rot vel   z-rot vel   x-rot acc   y-rot acc   z-rot acc
    22626 -1.09636E-02-4.77689E-05-1.32053E-04-5.83676E-03-6.53138E-06-5.67249E-05-1.77855E-03-5.46493E-05-3.58262E-05



 n o d a l   p r i n t   o u t   f o r   t i m e  s t e p   17002                              ( at time 8.4996494E+00 )

 nodal point  x-disp     y-disp      z-disp      x-vel       y-vel       z-vel      x-accl      y-accl      z-accl      x-coor      y-coor      z-coor
    22626 -8.53294E-03 1.74642E+00-5.22516E-01 1.82699E-03 7.97060E-01 1.09217E-01 6.76002E-03 2.09906E-01 1.39262E-01 4.65084E+00-2.64444E+01-4.55042E+01



 n o d a l   p r i n t   o u t   f o r   t i m e  s t e p   17002                              ( at time 8.4996494E+00 )

 nodal point  x-rot      y-rot       z-rot       x-rot vel   y-rot vel   z-rot vel   x-rot acc   y-rot acc   z-rot acc
    22626 -1.15571E-02-4.87174E-05-1.37988E-04-6.02982E-03-1.70025E-05-6.68885E-05-1.93081E-03-1.04722E-04-1.01647E-04



 n o d a l   p r i n t   o u t   f o r   t i m e  s t e p   17202                              ( at time 8.5996394E+00 )

 nodal point  x-disp     y-disp      z-disp      x-vel       y-vel       z-vel      x-accl      y-accl      z-accl      x-coor      y-coor      z-coor
    22626 -8.35683E-03 1.82714E+00-5.10880E-01 1.90721E-03 8.17165E-01 1.23784E-01 8.02354E-04 2.01072E-01 1.45684E-01 4.65102E+00-2.63637E+01-4.54926E+01



 n o d a l   p r i n t   o u t   f o r   t i m e  s t e p   17202                              ( at time 8.5996394E+00 )

 nodal point  x-rot      y-rot       z-rot       x-rot vel   y-rot vel   z-rot vel   x-rot acc   y-rot acc   z-rot acc
    22626 -1.21691E-02-5.12598E-05-1.45186E-04-6.19679E-03-2.73793E-05-7.83171E-05-1.66983E-03-1.03779E-04-1.14297E-04



 n o d a l   p r i n t   o u t   f o r   t i m e  s t e p   17402                              ( at time 8.6996293E+00 )

 nodal point  x-disp     y-disp      z-disp      x-vel       y-vel       z-vel      x-accl      y-accl      z-accl      x-coor      y-coor      z-coor
    22626 -8.12859E-03 1.90989E+00-4.97794E-01 2.82479E-03 8.38121E-01 1.38035E-01 9.17663E-03 2.09578E-01 1.42529E-01 4.65125E+00-2.62809E+01-4.54795E+01



 n o d a l   p r i n t   o u t   f o r   t i m e  s t e p   17402                              ( at time 8.6996293E+00 )

 nodal point  x-rot      y-rot       z-rot       x-rot vel   y-rot vel   z-rot vel   x-rot acc   y-rot acc   z-rot acc
    22626 -1.27970E-02-5.40428E-05-1.53115E-04-6.36685E-03-2.55938E-05-7.75815E-05-1.70075E-03 1.78570E-05 7.35696E-06



 n o d a l   p r i n t   o u t   f o r   t i m e  s t e p   17602                              ( at time 8.7996193E+00 )

 nodal point  x-disp     y-disp      z-disp      x-vel       y-vel       z-vel      x-accl      y-accl      z-accl      x-coor      y-coor      z-coor
    22626 -7.80959E-03 1.99469E+00-4.83180E-01 2.78373E-03 8.57906E-01 1.53617E-01-4.10704E-04 1.97864E-01 1.55834E-01 4.65157E+00-2.61961E+01-4.54649E+01



 n o d a l   p r i n t   o u t   f o r   t i m e  s t e p   17602                              ( at time 8.7996193E+00 )

 nodal point  x-rot      y-rot       z-rot       x-rot vel   y-rot vel   z-rot vel   x-rot acc   y-rot acc   z-rot acc
    22626 -1.34415E-02-5.63725E-05-1.61026E-04-6.52867E-03-2.64049E-05-7.93822E-05-1.61838E-03-8.11266E-06-1.80086E-05



 n o d a l   p r i n t   o u t   f o r   t i m e  s t e p   17802                              ( at time 8.8996093E+00 )

 nodal point  x-disp     y-disp      z-disp      x-vel       y-vel       z-vel      x-accl      y-accl      z-accl      x-coor      y-coor      z-coor
    22626 -7.55661E-03 2.08158E+00-4.67078E-01 3.04509E-03 8.78903E-01 1.67968E-01 2.61387E-03 2.09990E-01 1.43523E-01 4.65182E+00-2.61093E+01-4.54488E+01



 n o d a l   p r i n t   o u t   f o r   t i m e  s t e p   17802                              ( at time 8.8996093E+00 )

 nodal point  x-rot      y-rot       z-rot       x-rot vel   y-rot vel   z-rot vel   x-rot acc   y-rot acc   z-rot acc
    22626 -1.41013E-02-5.99068E-05-1.68827E-04-6.68054E-03-3.54381E-05-8.06259E-05-1.51882E-03-9.03408E-05-1.24391E-05



 n o d a l   p r i n t   o u t   f o r   t i m e  s t e p   18002                              ( at time 8.9995993E+00 )

 nodal point  x-disp     y-disp      z-disp      x-vel       y-vel       z-vel      x-accl      y-accl      z-accl      x-coor      y-coor      z-coor
    22626 -7.23045E-03 2.17045E+00-4.49455E-01 3.38918E-03 8.98867E-01 1.84022E-01 3.44126E-03 1.99670E-01 1.60552E-01 4.65214E+00-2.60204E+01-4.54312E+01



 n o d a l   p r i n t   o u t   f o r   t i m e  s t e p   18002                              ( at time 8.9995993E+00 )

 nodal point  x-rot      y-rot       z-rot       x-rot vel   y-rot vel   z-rot vel   x-rot acc   y-rot acc   z-rot acc
    22626 -1.47756E-02-6.25295E-05-1.76319E-04-6.82390E-03-1.69350E-05-7.00031E-05-1.43377E-03 1.85050E-04 1.06239E-04



 n o d a l   p r i n t   o u t   f o r   t i m e  s t e p   18202                              ( at time 9.0995893E+00 )

 nodal point  x-disp     y-disp      z-disp      x-vel       y-vel       z-vel      x-accl      y-accl      z-accl      x-coor      y-coor      z-coor
    22626 -6.82698E-03 2.26136E+00-4.30251E-01 4.55286E-03 9.19120E-01 2.00401E-01 1.16380E-02 2.02544E-01 1.63813E-01 4.65255E+00-2.59295E+01-4.54120E+01



 n o d a l   p r i n t   o u t   f o r   t i m e  s t e p   18202                              ( at time 9.0995893E+00 )

 nodal point  x-rot      y-rot       z-rot       x-rot vel   y-rot vel   z-rot vel   x-rot acc   y-rot acc   z-rot acc
    22626 -1.54643E-02-6.46657E-05-1.83553E-04-6.95622E-03-3.23949E-05-7.36491E-05-1.32337E-03-1.54615E-04-3.64638E-05



 n o d a l   p r i n t   o u t   f o r   t i m e  s t e p   18402                              ( at time 9.1995793E+00 )

 nodal point  x-disp     y-disp      z-disp      x-vel       y-vel       z-vel      x-accl      y-accl      z-accl      x-coor      y-coor      z-coor
    22626 -6.37388E-03 2.35421E+00-4.09390E-01 4.59309E-03 9.38880E-01 2.16982E-01 4.02344E-04 1.97625E-01 1.65830E-01 4.65300E+00-2.58366E+01-4.53911E+01



 n o d a l   p r i n t   o u t   f o r   t i m e  s t e p   18402                              ( at time 9.1995793E+00 )

 nodal point  x-rot      y-rot       z-rot       x-rot vel   y-rot vel   z-rot vel   x-rot acc   y-rot acc   z-rot acc
    22626 -1.61666E-02-6.79657E-05-1.90741E-04-7.08859E-03-2.49777E-05-6.93557E-05-1.32386E-03 7.41800E-05 4.29382E-05



 n o d a l   p r i n t   o u t   f o r   t i m e  s t e p   18602                              ( at time 9.2995693E+00 )

 nodal point  x-disp     y-disp      z-disp      x-vel       y-vel       z-vel      x-accl      y-accl      z-accl      x-coor      y-coor      z-coor
    22626 -5.84891E-03 2.44903E+00-3.86907E-01 5.98794E-03 9.57925E-01 2.33240E-01 1.39499E-02 1.90469E-01 1.62591E-01 4.65353E+00-2.57418E+01-4.53686E+01



 n o d a l   p r i n t   o u t   f o r   t i m e  s t e p   18602                              ( at time 9.2995693E+00 )

 nodal point  x-rot      y-rot       z-rot       x-rot vel   y-rot vel   z-rot vel   x-rot acc   y-rot acc   z-rot acc
    22626 -1.68817E-02-7.00239E-05-1.97363E-04-7.21275E-03-2.52471E-05-6.36299E-05-1.24167E-03-2.69500E-06 5.72639E-05



 n o d a l   p r i n t   o u t   f o r   t i m e  s t e p   18802                              ( at time 9.3995593E+00 )

 nodal point  x-disp     y-disp      z-disp      x-vel       y-vel       z-vel      x-accl      y-accl      z-accl      x-coor      y-coor      z-coor
    22626 -5.14667E-03 2.54579E+00-3.62739E-01 7.36991E-03 9.77511E-01 2.51097E-01 1.38211E-02 1.95876E-01 1.78588E-01 4.65423E+00-2.56450E+01-4.53445E+01



 n o d a l   p r i n t   o u t   f o r   t i m e  s t e p   18802                              ( at time 9.3995593E+00 )

 nodal point  x-rot      y-rot       z-rot       x-rot vel   y-rot vel   z-rot vel   x-rot acc   y-rot acc   z-rot acc
    22626 -1.76098E-02-7.22247E-05-2.02911E-04-7.34956E-03-1.79447E-05-4.89462E-05-1.36826E-03 7.30313E-05 1.46852E-04



 n o d a l   p r i n t   o u t   f o r   t i m e  s t e p   19002                              ( at time 9.4995493E+00 )

 nodal point  x-disp     y-disp      z-disp      x-vel       y-vel       z-vel      x-accl      y-accl      z-accl      x-coor      y-coor      z-coor
    22626 -4.38815E-03 2.64443E+00-3.36696E-01 8.14223E-03 9.95875E-01 2.70007E-01 7.72398E-03 1.83655E-01 1.89124E-01 4.65499E+00-2.55464E+01-4.53184E+01



 n o d a l   p r i n t   o u t   f o r   t i m e  s t e p   19002                              ( at time 9.4995493E+00 )

 nodal point  x-rot      y-rot       z-rot       x-rot vel   y-rot vel   z-rot vel   x-rot acc   y-rot acc   z-rot acc
    22626 -1.83512E-02-7.37832E-05-2.07248E-04-7.47747E-03-1.80188E-05-4.41195E-05-1.27923E-03-7.41058E-07 4.82720E-05



 n o d a l   p r i n t   o u t   f o r   t i m e  s t e p   19202                              ( at time 9.5995393E+00 )

 nodal point  x-disp     y-disp      z-disp      x-vel       y-vel       z-vel      x-accl      y-accl      z-accl      x-coor      y-coor      z-coor
    22626 -3.48468E-03 2.74491E+00-3.08743E-01 9.39768E-03 1.01361E+00 2.89400E-01 1.25556E-02 1.77391E-01 1.93947E-01 4.65589E+00-2.54459E+01-4.52905E+01



 n o d a l   p r i n t   o u t   f o r   t i m e  s t e p   19202                              ( at time 9.5995393E+00 )

 nodal point  x-rot      y-rot       z-rot       x-rot vel   y-rot vel   z-rot vel   x-rot acc   y-rot acc   z-rot acc
    22626 -1.91050E-02-7.49273E-05-2.10659E-04-7.60140E-03 1.76395E-06-2.21344E-05-1.23940E-03 1.97846E-04 2.19871E-04



 n o d a l   p r i n t   o u t   f o r   t i m e  s t e p   19402                              ( at time 9.6995293E+00 )

 nodal point  x-disp     y-disp      z-disp      x-vel       y-vel       z-vel      x-accl      y-accl      z-accl      x-coor      y-coor      z-coor
    22626 -2.44780E-03 2.84715E+00-2.78785E-01 1.14029E-02 1.03123E+00 3.09817E-01 2.00540E-02 1.76185E-01 2.04188E-01 4.65693E+00-2.53437E+01-4.52605E+01



 n o d a l   p r i n t   o u t   f o r   t i m e  s t e p   19402                              ( at time 9.6995293E+00 )

 nodal point  x-rot      y-rot       z-rot       x-rot vel   y-rot vel   z-rot vel   x-rot acc   y-rot acc   z-rot acc
    22626 -1.98716E-02-7.34756E-05-2.11172E-04-7.73246E-03 2.04390E-05 3.38044E-06-1.31073E-03 1.86769E-04 2.55174E-04



 n o d a l   p r i n t   o u t   f o r   t i m e  s t e p   19602                              ( at time 9.7995193E+00 )

 nodal point  x-disp     y-disp      z-disp      x-vel       y-vel       z-vel      x-accl      y-accl      z-accl      x-coor      y-coor      z-coor
    22626 -1.26586E-03 2.95112E+00-2.46716E-01 1.20438E-02 1.04780E+00 3.31641E-01 6.40941E-03 1.65757E-01 2.18260E-01 4.65811E+00-2.52397E+01-4.52284E+01



 n o d a l   p r i n t   o u t   f o r   t i m e  s t e p   19602                              ( at time 9.7995193E+00 )

 nodal point  x-rot      y-rot       z-rot       x-rot vel   y-rot vel   z-rot vel   x-rot acc   y-rot acc   z-rot acc
    22626 -2.06523E-02-7.16891E-05-2.09754E-04-7.88286E-03 2.31669E-05 1.92021E-05-1.50419E-03 2.72817E-05 1.58233E-04



 n o d a l   p r i n t   o u t   f o r   t i m e  s t e p   19802                              ( at time 9.8995093E+00 )

 nodal point  x-disp     y-disp      z-disp      x-vel       y-vel       z-vel      x-accl      y-accl      z-accl      x-coor      y-coor      z-coor
    22626  1.70912E-05 3.05672E+00-2.12406E-01 1.33450E-02 1.06434E+00 3.54366E-01 1.30135E-02 1.65366E-01 2.27271E-01 4.65939E+00-2.51341E+01-4.51941E+01



 n o d a l   p r i n t   o u t   f o r   t i m e  s t e p   19802                              ( at time 9.8995093E+00 )

 nodal point  x-rot      y-rot       z-rot       x-rot vel   y-rot vel   z-rot vel   x-rot acc   y-rot acc   z-rot acc
    22626 -2.14480E-02-6.79941E-05-2.06626E-04-8.02835E-03 5.28143E-05 4.17345E-05-1.45502E-03 2.96505E-04 2.25347E-04



 n o d a l   p r i n t   o u t   f o r   t i m e  s t e p   20003                              ( at time 9.9999992E+00 )

 nodal point  x-disp     y-disp      z-disp      x-vel       y-vel       z-vel      x-accl      y-accl      z-accl      x-coor      y-coor      z-coor
[...]
    22626 -1.97982E-01-6.36776E-04-1.30023E-03-1.87153E-02 8.71302E-05-1.69800E-05-5.56181E-04-1.69379E-04-1.23095E-04



 n o d a l   p r i n t   o u t   f o r   t i m e  s t e p   45205                              ( at time 2.2599738E+01 )

 nodal point  x-disp     y-disp      z-disp      x-vel       y-vel       z-vel      x-accl      y-accl      z-accl      x-coor      y-coor      z-coor
    22626  2.15381E-02 2.10557E+01 1.78385E+01-2.96675E-02 1.72644E+00 1.01169E+00 8.20090E-03 3.33232E-02-1.47776E-01 4.68091E+00-7.13512E+00-2.71432E+01



 n o d a l   p r i n t   o u t   f o r   t i m e  s t e p   45205                              ( at time 2.2599738E+01 )

 nodal point  x-rot      y-rot       z-rot       x-rot vel   y-rot vel   z-rot vel   x-rot acc   y-rot acc   z-rot acc
    22626 -1.99853E-01-6.27450E-04-1.30141E-03-1.87388E-02 1.05206E-04-4.75837E-06-2.34156E-04 1.80777E-04 1.22228E-04



 n o d a l   p r i n t   o u t   f o r   t i m e  s t e p   45405                              ( at time 2.2699728E+01 )

 nodal point  x-disp     y-disp      z-disp      x-vel       y-vel       z-vel      x-accl      y-accl      z-accl      x-coor      y-coor      z-coor
    22626  1.86042E-02 2.12285E+01 1.79389E+01-2.88977E-02 1.72926E+00 9.95919E-01 7.69933E-03 2.81770E-02-1.57709E-01 4.67798E+00-6.96231E+00-2.70428E+01



 n o d a l   p r i n t   o u t   f o r   t i m e  s t e p   45405                              ( at time 2.2699728E+01 )

 nodal point  x-rot      y-rot       z-rot       x-rot vel   y-rot vel   z-rot vel   x-rot acc   y-rot acc   z-rot acc
    22626 -2.01727E-01-6.16294E-04-1.30136E-03-1.87684E-02 1.11862E-04-3.56008E-06-2.96175E-04 6.65637E-05 1.19843E-05



 n o d a l   p r i n t   o u t   f o r   t i m e  s t e p   45605                              ( at time 2.2799718E+01 )

 nodal point  x-disp     y-disp      z-disp      x-vel       y-vel       z-vel      x-accl      y-accl      z-accl      x-coor      y-coor      z-coor
    22626  1.56476E-02 2.14016E+01 1.80379E+01-3.02128E-02 1.73234E+00 9.84431E-01-1.31525E-02 3.08780E-02-1.14890E-01 4.67502E+00-6.78927E+00-2.69438E+01



 n o d a l   p r i n t   o u t   f o r   t i m e  s t e p   45605                              ( at time 2.2799718E+01 )

 nodal point  x-rot      y-rot       z-rot       x-rot vel   y-rot vel   z-rot vel   x-rot acc   y-rot acc   z-rot acc
    22626 -2.03605E-01-6.05922E-04-1.30157E-03-1.88195E-02 1.09933E-04-1.38677E-06-5.11417E-04-1.92891E-05 2.17351E-05



 n o d a l   p r i n t   o u t   f o r   t i m e  s t e p   45805                              ( at time 2.2899708E+01 )

 nodal point  x-disp     y-disp      z-disp      x-vel       y-vel       z-vel      x-accl      y-accl      z-accl      x-coor      y-coor      z-coor
    22626  1.26241E-02 2.15749E+01 1.81356E+01-3.01615E-02 1.73436E+00 9.70667E-01 5.13085E-04 2.01581E-02-1.37658E-01 4.67200E+00-6.61595E+00-2.68461E+01



 n o d a l   p r i n t   o u t   f o r   t i m e  s t e p   45805                              ( at time 2.2899708E+01 )

 nodal point  x-rot      y-rot       z-rot       x-rot vel   y-rot vel   z-rot vel   x-rot acc   y-rot acc   z-rot acc
    22626 -2.05486E-01-5.95277E-04-1.30157E-03-1.88231E-02 1.07890E-04-1.02867E-06-3.64374E-05-2.04352E-05 3.58137E-06



 n o d a l   p r i n t   o u t   f o r   t i m e  s t e p   46005                              ( at time 2.2999698E+01 )

 nodal point  x-disp     y-disp      z-disp      x-vel       y-vel       z-vel      x-accl      y-accl      z-accl      x-coor      y-coor      z-coor
    22626  9.62261E-03 2.17484E+01 1.82320E+01-2.99373E-02 1.73669E+00 9.57875E-01 2.24276E-03 2.32897E-02-1.27931E-01 4.66900E+00-6.44240E+00-2.67497E+01



 n o d a l   p r i n t   o u t   f o r   t i m e  s t e p   46005                              ( at time 2.2999698E+01 )

 nodal point  x-rot      y-rot       z-rot       x-rot vel   y-rot vel   z-rot vel   x-rot acc   y-rot acc   z-rot acc
    22626 -2.07368E-01-5.84041E-04-1.30114E-03-1.88475E-02 1.16277E-04 7.29976E-06-2.43787E-04 8.38756E-05 8.32919E-05



 n o d a l   p r i n t   o u t   f o r   t i m e  s t e p   46205                              ( at time 2.3099688E+01 )

 nodal point  x-disp     y-disp      z-disp      x-vel       y-vel       z-vel      x-accl      y-accl      z-accl      x-coor      y-coor      z-coor
    22626  6.63690E-03 2.19222E+01 1.83273E+01-3.03294E-02 1.73875E+00 9.47371E-01-3.92184E-03 2.05885E-02-1.05050E-01 4.66601E+00-6.26867E+00-2.66544E+01



 n o d a l   p r i n t   o u t   f o r   t i m e  s t e p   46205                              ( at time 2.3099688E+01 )

 nodal point  x-rot      y-rot       z-rot       x-rot vel   y-rot vel   z-rot vel   x-rot acc   y-rot acc   z-rot acc
    22626 -2.09253E-01-5.72048E-04-1.30014E-03-1.88783E-02 1.15381E-04 1.24995E-05-3.07799E-04-8.96221E-06 5.20028E-05



 n o d a l   p r i n t   o u t   f o r   t i m e  s t e p   46405                              ( at time 2.3199678E+01 )

 nodal point  x-disp     y-disp      z-disp      x-vel       y-vel       z-vel      x-accl      y-accl      z-accl      x-coor      y-coor      z-coor
    22626  3.56715E-03 2.20961E+01 1.84215E+01-3.09405E-02 1.74033E+00 9.37155E-01-6.11194E-03 1.58408E-02-1.02172E-01 4.66294E+00-6.09475E+00-2.65602E+01



 n o d a l   p r i n t   o u t   f o r   t i m e  s t e p   46405                              ( at time 2.3199678E+01 )

 nodal point  x-rot      y-rot       z-rot       x-rot vel   y-rot vel   z-rot vel   x-rot acc   y-rot acc   z-rot acc
    22626 -2.11139E-01-5.59861E-04-1.29919E-03-1.88769E-02 1.23344E-04 1.15907E-05 1.41015E-05 7.96374E-05-9.08894E-06



 n o d a l   p r i n t   o u t   f o r   t i m e  s t e p   46605                              ( at time 2.3299668E+01 )

 nodal point  x-disp     y-disp      z-disp      x-vel       y-vel       z-vel      x-accl      y-accl      z-accl      x-coor      y-coor      z-coor
    22626  4.64915E-04 2.22702E+01 1.85147E+01-3.06492E-02 1.74169E+00 9.26069E-01 2.91331E-03 1.35854E-02-1.10872E-01 4.65984E+00-5.92067E+00-2.64671E+01



 n o d a l   p r i n t   o u t   f o r   t i m e  s t e p   46605                              ( at time 2.3299668E+01 )

 nodal point  x-rot      y-rot       z-rot       x-rot vel   y-rot vel   z-rot vel   x-rot acc   y-rot acc   z-rot acc
    22626 -2.13026E-01-5.47598E-04-1.29757E-03-1.88877E-02 1.30170E-04 2.06656E-05-1.07952E-04 6.82691E-05 9.07593E-05



 n o d a l   p r i n t   o u t   f o r   t i m e  s t e p   46805                              ( at time 2.3399658E+01 )

 nodal point  x-disp     y-disp      z-disp      x-vel       y-vel       z-vel      x-accl      y-accl      z-accl      x-coor      y-coor      z-coor
    22626 -2.60091E-03 2.24444E+01 1.86068E+01-3.08361E-02 1.74312E+00 9.18429E-01-1.86898E-03 1.42981E-02-7.64029E-02 4.65677E+00-5.74646E+00-2.63749E+01



 n o d a l   p r i n t   o u t   f o r   t i m e  s t e p   46805                              ( at time 2.3399658E+01 )

 nodal point  x-rot      y-rot       z-rot       x-rot vel   y-rot vel   z-rot vel   x-rot acc   y-rot acc   z-rot acc
    22626 -2.14913E-01-5.33928E-04-1.29548E-03-1.88913E-02 1.39076E-04 3.18335E-05-3.61200E-05 8.90726E-05 1.11690E-04



 n o d a l   p r i n t   o u t   f o r   t i m e  s t e p   47005                              ( at time 2.3499648E+01 )

 nodal point  x-disp     y-disp      z-disp      x-vel       y-vel       z-vel      x-accl      y-accl      z-accl      x-coor      y-coor      z-coor
    22626 -5.68940E-03 2.26187E+01 1.86982E+01-3.10697E-02 1.74424E+00 9.09716E-01-2.33575E-03 1.12532E-02-8.71392E-02 4.65369E+00-5.57210E+00-2.62835E+01



 n o d a l   p r i n t   o u t   f o r   t i m e  s t e p   47005                              ( at time 2.3499648E+01 )

 nodal point  x-rot      y-rot       z-rot       x-rot vel   y-rot vel   z-rot vel   x-rot acc   y-rot acc   z-rot acc
    22626 -2.16802E-01-5.19848E-04-1.29242E-03-1.88945E-02 1.36550E-04 3.20606E-05-3.19845E-05-2.52628E-05 2.27082E-06



 n o d a l   p r i n t   o u t   f o r   t i m e  s t e p   47205                              ( at time 2.3599638E+01 )

 nodal point  x-disp     y-disp      z-disp      x-vel       y-vel       z-vel      x-accl      y-accl      z-accl      x-coor      y-coor      z-coor
    22626 -8.84367E-03 2.27931E+01 1.87888E+01-3.16536E-02 1.74471E+00 9.01801E-01-5.83937E-03 4.68902E-03-7.91578E-02 4.65053E+00-5.39768E+00-2.61929E+01



 n o d a l   p r i n t   o u t   f o r   t i m e  s t e p   47205                              ( at time 2.3599638E+01 )

 nodal point  x-rot      y-rot       z-rot       x-rot vel   y-rot vel   z-rot vel   x-rot acc   y-rot acc   z-rot acc
    22626 -2.18690E-01-5.05620E-04-1.28941E-03-1.88807E-02 1.47968E-04 3.41223E-05 1.37553E-04 1.14195E-04 2.06200E-05



 n o d a l   p r i n t   o u t   f o r   t i m e  s t e p   47405                              ( at time 2.3699628E+01 )

 nodal point  x-disp     y-disp      z-disp      x-vel       y-vel       z-vel      x-accl      y-accl      z-accl      x-coor      y-coor      z-coor
    22626 -1.19685E-02 2.29677E+01 1.88786E+01-3.09348E-02 1.74581E+00 8.95680E-01 7.18855E-03 1.09373E-02-6.12178E-02 4.64741E+00-5.22314E+00-2.61031E+01



 n o d a l   p r i n t   o u t   f o r   t i m e  s t e p   47405                              ( at time 2.3699628E+01 )

 nodal point  x-rot      y-rot       z-rot       x-rot vel   y-rot vel   z-rot vel   x-rot acc   y-rot acc   z-rot acc
    22626 -2.20577E-01-4.90604E-04-1.28568E-03-1.88724E-02 1.54777E-04 4.28237E-05 8.35100E-05 6.80891E-05 8.70213E-05



 n o d a l   p r i n t   o u t   f o r   t i m e  s t e p   47605                              ( at time 2.3799618E+01 )

 nodal point  x-disp     y-disp      z-disp      x-vel       y-vel       z-vel      x-accl      y-accl      z-accl      x-coor      y-coor      z-coor
    22626 -1.50617E-02 2.31423E+01 1.89679E+01-3.11321E-02 1.74617E+00 8.89715E-01-1.97403E-03 3.62675E-03-5.96595E-02 4.64431E+00-5.04854E+00-2.60138E+01



 n o d a l   p r i n t   o u t   f o r   t i m e  s t e p   47605                              ( at time 2.3799618E+01 )

 nodal point  x-rot      y-rot       z-rot       x-rot vel   y-rot vel   z-rot vel   x-rot acc   y-rot acc   z-rot acc
    22626 -2.22463E-01-4.75407E-04-1.28130E-03-1.88655E-02 1.64103E-04 4.49945E-05 6.91677E-05 9.32728E-05 2.17108E-05



 n o d a l   p r i n t   o u t   f o r   t i m e  s t e p   47805                              ( at time 2.3899608E+01 )

 nodal point  x-disp     y-disp      z-disp      x-vel       y-vel       z-vel      x-accl      y-accl      z-accl      x-coor      y-coor      z-coor
    22626 -1.82145E-02 2.33169E+01 1.90566E+01-3.17756E-02 1.74650E+00 8.84244E-01-6.43504E-03 3.32147E-03-5.47119E-02 4.64116E+00-4.87394E+00-2.59252E+01



 n o d a l   p r i n t   o u t   f o r   t i m e  s t e p   47805                              ( at time 2.3899608E+01 )

 nodal point  x-rot      y-rot       z-rot       x-rot vel   y-rot vel   z-rot vel   x-rot acc   y-rot acc   z-rot acc
    22626 -2.24348E-01-4.59330E-04-1.27673E-03-1.88433E-02 1.56890E-04 4.75438E-05 2.21358E-04-7.21342E-05 2.54947E-05



 n o d a l   p r i n t   o u t   f o r   t i m e  s t e p   48005                              ( at time 2.3999598E+01 )

 nodal point  x-disp     y-disp      z-disp      x-vel       y-vel       z-vel      x-accl      y-accl      z-accl      x-coor      y-coor      z-coor
    22626 -2.13950E-02 2.34915E+01 1.91447E+01-3.14908E-02 1.74661E+00 8.79412E-01 2.84867E-03 1.05750E-03-4.83286E-02 4.63798E+00-4.69930E+00-2.58370E+01



 n o d a l   p r i n t   o u t   f o r   t i m e  s t e p   48005                              ( at time 2.3999598E+01 )

 nodal point  x-rot      y-rot       z-rot       x-rot vel   y-rot vel   z-rot vel   x-rot acc   y-rot acc   z-rot acc
    22626 -2.26231E-01-4.43693E-04-1.27190E-03-1.88350E-02 1.59175E-04 5.05493E-05 8.36234E-05 2.28512E-05 3.00589E-05



 n o d a l   p r i n t   o u t   f o r   t i m e  s t e p   48205                              ( at time 2.4099588E+01 )

 nodal point  x-disp     y-disp      z-disp      x-vel       y-vel       z-vel      x-accl      y-accl      z-accl      x-coor      y-coor      z-coor
    22626 -2.45369E-02 2.36661E+01 1.92325E+01-3.13572E-02 1.74606E+00 8.76548E-01 1.33571E-03-5.43167E-03-2.86397E-02 4.63484E+00-4.52470E+00-2.57492E+01



 n o d a l   p r i n t   o u t   f o r   t i m e  s t e p   48205                              ( at time 2.4099588E+01 )

 nodal point  x-rot      y-rot       z-rot       x-rot vel   y-rot vel   z-rot vel   x-rot acc   y-rot acc   z-rot acc
    22626 -2.28113E-01-4.26775E-04-1.26652E-03-1.88143E-02 1.68096E-04 5.61365E-05 2.06735E-04 8.92175E-05 5.58774E-05



 n o d a l   p r i n t   o u t   f o r   t i m e  s t e p   48405                              ( at time 2.4199578E+01 )

 nodal point  x-disp     y-disp      z-disp      x-vel       y-vel       z-vel      x-accl      y-accl      z-accl      x-coor      y-coor      z-coor
    22626 -2.76871E-02 2.38407E+01 1.93200E+01-3.18265E-02 1.74548E+00 8.73520E-01-4.69316E-03-5.83236E-03-3.02843E-02 4.63169E+00-4.35017E+00-2.56617E+01



 n o d a l   p r i n t   o u t   f o r   t i m e  s t e p   48405                              ( at time 2.4199578E+01 )

 nodal point  x-rot      y-rot       z-rot       x-rot vel   y-rot vel   z-rot vel   x-rot acc   y-rot acc   z-rot acc
    22626 -2.29992E-01-4.09877E-04-1.26051E-03-1.87909E-02 1.64985E-04 5.82790E-05 2.33825E-04-3.11163E-05 2.14268E-05



 n o d a l   p r i n t   o u t   f o r   t i m e  s t e p   48605                              ( at time 2.4299568E+01 )

 nodal point  x-disp     y-disp      z-disp      x-vel       y-vel       z-vel      x-accl      y-accl      z-accl      x-coor      y-coor      z-coor
    22626 -3.08780E-02 2.40151E+01 1.94072E+01-3.18703E-02 1.74468E+00 8.71208E-01-4.38022E-04-8.04021E-03-2.31245E-02 4.62850E+00-4.17570E+00-2.55745E+01



 n o d a l   p r i n t   o u t   f o r   t i m e  s t e p   48605                              ( at time 2.4299568E+01 )

 nodal point  x-rot      y-rot       z-rot       x-rot vel   y-rot vel   z-rot vel   x-rot acc   y-rot acc   z-rot acc
    22626 -2.31870E-01-3.92509E-04-1.25480E-03-1.87595E-02 1.77722E-04 5.82268E-05 3.14052E-04 1.27384E-04-5.22171E-07



 n o d a l   p r i n t   o u t   f o r   t i m e  s t e p   48805                              ( at time 2.4399558E+01 )

 nodal point  x-disp     y-disp      z-disp      x-vel       y-vel       z-vel      x-accl      y-accl      z-accl      x-coor      y-coor      z-coor
    22626 -3.40492E-02 2.41895E+01 1.94943E+01-3.12678E-02 1.74310E+00 8.70883E-01 6.02468E-03-1.58014E-02-3.25173E-03 4.62533E+00-4.00130E+00-2.54875E+01



 n o d a l   p r i n t   o u t   f o r   t i m e  s t e p   48805                              ( at time 2.4399558E+01 )

 nodal point  x-rot      y-rot       z-rot       x-rot vel   y-rot vel   z-rot vel   x-rot acc   y-rot acc   z-rot acc
    22626 -2.33744E-01-3.75337E-04-1.24851E-03-1.87305E-02 1.72984E-04 6.61347E-05 2.90506E-04-4.73830E-05 7.90865E-05



 n o d a l   p r i n t   o u t   f o r   t i m e  s t e p   49006                              ( at time 2.4500048E+01 )

 nodal point  x-disp     y-disp      z-disp      x-vel       y-vel       z-vel      x-accl      y-accl      z-accl      x-coor      y-coor      z-coor
    22626 -3.72293E-02 2.43646E+01 1.95817E+01-3.15760E-02 1.74169E+00 8.69487E-01-3.06646E-03-1.40196E-02-1.38892E-02 4.62215E+00-3.82620E+00-2.54000E+01



 n o d a l   p r i n t   o u t   f o r   t i m e  s t e p   49006                              ( at time 2.4500048E+01 )

 nodal point  x-rot      y-rot       z-rot       x-rot vel   y-rot vel   z-rot vel   x-rot acc   y-rot acc   z-rot acc
    22626 -2.35626E-01-3.57278E-04-1.24136E-03-1.87112E-02 1.87620E-04 7.08055E-05 1.92032E-04 1.45644E-04 4.64808E-05



 n o d a l   p r i n t   o u t   f o r   t i m e  s t e p   49206                              ( at time 2.4600038E+01 )

 nodal point  x-disp     y-disp      z-disp      x-vel       y-vel       z-vel      x-accl      y-accl      z-accl      x-coor      y-coor      z-coor
    22626 -4.03493E-02 2.45387E+01 1.96686E+01-3.19373E-02 1.74031E+00 8.69124E-01-3.61342E-03-1.38129E-02-3.63324E-03 4.61903E+00-3.65211E+00-2.53131E+01



 n o d a l   p r i n t   o u t   f o r   t i m e  s t e p   49206                              ( at time 2.4600038E+01 )

 nodal point  x-rot      y-rot       z-rot       x-rot vel   y-rot vel   z-rot vel   x-rot acc   y-rot acc   z-rot acc
    22626 -2.37494E-01-3.38637E-04-1.23469E-03-1.86767E-02 1.75533E-04 6.42097E-05 3.44491E-04-1.20879E-04-6.59638E-05



 n o d a l   p r i n t   o u t   f o r   t i m e  s t e p   49406                              ( at time 2.4700028E+01 )

 nodal point  x-disp     y-disp      z-disp      x-vel       y-vel       z-vel      x-accl      y-accl      z-accl      x-coor      y-coor      z-coor
    22626 -4.35955E-02 2.47127E+01 1.97555E+01-3.23876E-02 1.73825E+00 8.70085E-01-4.50367E-03-2.05814E-02 9.61768E-03 4.61578E+00-3.47817E+00-2.52262E+01



 n o d a l   p r i n t   o u t   f o r   t i m e  s t e p   49406                              ( at time 2.4700028E+01 )

 nodal point  x-rot      y-rot       z-rot       x-rot vel   y-rot vel   z-rot vel   x-rot acc   y-rot acc   z-rot acc
    22626 -2.39359E-01-3.20590E-04-1.22757E-03-1.86266E-02 1.89625E-04 7.26722E-05 5.01666E-04 1.40942E-04 8.46339E-05



 n o d a l   p r i n t   o u t   f o r   t i m e  s t e p   49606                              ( at time 2.4800018E+01 )

 nodal point  x-disp     y-disp      z-disp      x-vel       y-vel       z-vel      x-accl      y-accl      z-accl      x-coor      y-coor      z-coor
    22626 -4.67831E-02 2.48863E+01 1.98426E+01-3.16780E-02 1.73610E+00 8.71458E-01 7.09722E-03-2.14644E-02 1.37240E-02 4.61259E+00-3.30448E+00-2.51391E+01



 n o d a l   p r i n t   o u t   f o r   t i m e  s t e p   49606                              ( at time 2.4800018E+01 )

 nodal point  x-rot      y-rot       z-rot       x-rot vel   y-rot vel   z-rot vel   x-rot acc   y-rot acc   z-rot acc
    22626 -2.41220E-01-3.01235E-04-1.22008E-03-1.86037E-02 1.98530E-04 7.91340E-05 2.28605E-04 8.90566E-05 6.46243E-05



 n o d a l   p r i n t   o u t   f o r   t i m e  s t e p   49806                              ( at time 2.4900008E+01 )

 nodal point  x-disp     y-disp      z-disp      x-vel       y-vel       z-vel      x-accl      y-accl      z-accl      x-coor      y-coor      z-coor
    22626 -5.00052E-02 2.50598E+01 1.99298E+01-3.28428E-02 1.73351E+00 8.72907E-01-1.16495E-02-2.59500E-02 1.44909E-02 4.60937E+00-3.13103E+00-2.50519E+01



 n o d a l   p r i n t   o u t   f o r   t i m e  s t e p   49806                              ( at time 2.4900008E+01 )

 nodal point  x-rot      y-rot       z-rot       x-rot vel   y-rot vel   z-rot vel   x-rot acc   y-rot acc   z-rot acc
    22626 -2.43077E-01-2.81746E-04-1.21242E-03-1.85534E-02 1.93523E-04 7.59863E-05 5.03305E-04-5.00814E-05-3.14812E-05



 n o d a l   p r i n t   o u t   f o r   t i m e  s t e p   50006                              ( at time 2.4999998E+01 )

 nodal point  x-disp     y-disp      z-disp      x-vel       y-vel       z-vel      x-accl      y-accl      z-accl      x-coor      y-coor      z-coor
    22626 -5.32895E-02 2.52330E+01 2.00172E+01-3.26861E-02 1.73028E+00 8.75722E-01 1.56722E-03-3.22550E-02 2.81539E-02 4.60609E+00-2.95784E+00-2.49645E+01



 n o d a l   p r i n t   o u t   f o r   t i m e  s t e p   50006                              ( at time 2.4999998E+01 )

 nodal point  x-rot      y-rot       z-rot       x-rot vel   y-rot vel   z-rot vel   x-rot acc   y-rot acc   z-rot acc
    22626 -2.44930E-01-2.62180E-04-1.20536E-03-1.85041E-02 1.94627E-04 6.74531E-05 4.92864E-04 1.10440E-05-8.53393E-05
