 LSTC 50th% Full_FE H-III Dummy (Beta Version, February 17, 2019)        
                    ls-dyna smp s R16 R16.0_619_d222963 date 03/18/2025

{BEGIN LEGEND}
 Entity #        Title
        1     Upper_Neck_Force_INJURY                                              
{END LEGEND}



 line#1  section#     time        x-force     y-force     z-force    magnitude
 line#2  resultant  moments       x-moment    y-moment    z-moment   magnitude
 line#3  centroids                x           y           z            area  
           1    0.00000E+00     0.0000E+00  0.0000E+00  0.0000E+00  0.0000E+00
ac ID =   33377                 0.0000E+00  0.0000E+00  0.0000E+00  0.0000E+00
                               -3.7437E-01  1.0501E+01 -4.6940E+01  0.0000E+00

           1    1.00490E-01     1.3617E-04 -4.9880E-03  2.5983E-01  2.5988E-01
ac ID =   33377                 4.2544E-01 -1.2522E+00 -2.7100E-02  1.3227E+00
                               -3.7387E-01  1.0590E+01 -4.6886E+01  2.5147E+03

           1    2.00480E-01    -4.4379E-02  5.8214E-04  4.4095E-01  4.4318E-01
ac ID =   33377                 3.0665E-01 -1.5966E+00  2.2118E-02  1.6259E+00
                               -3.7386E-01  1.0591E+01 -4.6888E+01  2.5147E+03

           1    3.00470E-01     1.4957E-02 -3.2823E-03  2.1768E-01  2.1822E-01
ac ID =   33377                 2.6904E-02 -3.4005E-01  6.7337E-02  3.4770E-01
                               -3.7382E-01  1.0591E+01 -4.6889E+01  2.5147E+03

           1    4.00460E-01     2.8435E-03  1.1004E-02  8.7824E-02  8.8557E-02
ac ID =   33377                -4.9695E-01 -9.4257E-01 -8.3576E-03  1.0656E+00
                               -3.7384E-01  1.0592E+01 -4.6890E+01  2.5147E+03

           1    5.00450E-01    -4.0870E-02  4.3447E-03  1.6170E-01  1.6685E-01
ac ID =   33377                -4.0067E-01 -1.5059E+00 -1.0759E-01  1.5620E+00
                               -3.7385E-01  1.0594E+01 -4.6893E+01  2.5147E+03

           1    6.00440E-01    -1.0873E-02  3.8198E-03  3.4355E-01  3.4375E-01
ac ID =   33377                 9.3300E-02 -1.3252E+00 -3.6074E-02  1.3290E+00
                               -3.7385E-01  1.0595E+01 -4.6897E+01  2.5147E+03

           1    7.00430E-01     3.0413E-03 -5.4208E-03  2.9463E-01  2.9469E-01
ac ID =   33377                 1.3822E-01 -5.0398E-01  8.4082E-02  5.2931E-01
                               -3.7389E-01  1.0597E+01 -4.6901E+01  2.5147E+03

           1    8.00420E-01    -3.0722E-02 -1.3172E-03  1.0055E-01  1.0515E-01
ac ID =   33377                 8.0703E-02 -1.0493E+00  4.4951E-02  1.0534E+00
                               -3.7394E-01  1.0599E+01 -4.6905E+01  2.5147E+03

           1    9.00410E-01    -3.9215E-02  9.3199E-04  6.2580E-02  7.3858E-02
ac ID =   33377                 9.1400E-02 -1.0754E+00 -9.3391E-04  1.0793E+00
                               -3.7399E-01  1.0601E+01 -4.6909E+01  2.5147E+03

           1    1.00040E+00     1.4900E-02 -3.8829E-03  2.2070E-01  2.2124E-01
ac ID =   33377                 3.6726E-01 -2.8343E-01 -5.3554E-02  4.6699E-01
                               -3.7400E-01  1.0604E+01 -4.6915E+01  2.5147E+03

           1    1.10039E+00     4.0942E-04 -3.0086E-03  2.7076E-01  2.7078E-01
ac ID =   33377                 3.4676E-01 -8.8047E-01 -5.2825E-02  9.4777E-01
                               -3.7401E-01  1.0607E+01 -4.6921E+01  2.5147E+03

           1    1.20038E+00    -3.2373E-02 -3.6524E-04  1.2897E-01  1.3297E-01
ac ID =   33377                -1.5301E-01 -1.1796E+00  1.6684E-02  1.1896E+00
                               -3.7403E-01  1.0610E+01 -4.6927E+01  2.5147E+03

           1    1.30037E+00    -1.0439E-02  4.6915E-03  7.4804E-02  7.5675E-02
ac ID =   33377                -2.9895E-01 -8.8744E-01  1.7732E-02  9.3661E-01
                               -3.7407E-01  1.0612E+01 -4.6933E+01  2.5147E+03

           1    1.40036E+00     7.7219E-03  3.5630E-03  1.7342E-01  1.7363E-01
ac ID =   33377                -2.9352E-01 -8.3243E-01  2.8060E-02  8.8310E-01
                               -3.7409E-01  1.0616E+01 -4.6941E+01  2.5147E+03

           1    1.50035E+00    -2.6902E-02  1.0584E-03  3.2828E-01  3.2938E-01
ac ID =   33377                -1.4166E-02 -1.5790E+00 -4.6423E-02  1.5797E+00
                               -3.7413E-01  1.0620E+01 -4.6949E+01  2.5147E+03

           1    1.60034E+00    -1.9184E-02 -2.4512E-03  2.2084E-01  2.2169E-01
ac ID =   33377                -2.2298E-02 -1.3690E+00 -7.7553E-03  1.3692E+00
                               -3.7419E-01  1.0624E+01 -4.6957E+01  2.5147E+03

           1    1.70033E+00    -2.8920E-03 -6.0954E-04  5.8797E-02  5.8871E-02
ac ID =   33377                -4.3469E-02 -6.6842E-01  9.1423E-02  6.7605E-01
                               -3.7427E-01  1.0627E+01 -4.6965E+01  2.5147E+03

           1    1.80032E+00    -2.0098E-02  1.0774E-03  7.7672E-02  8.0238E-02
ac ID =   33377                 8.9446E-02 -1.1182E+00  1.2957E-01  1.1292E+00
                               -3.7434E-01  1.0632E+01 -4.6974E+01  2.5147E+03

           1    1.90031E+00    -7.6445E-03 -2.5812E-03  1.9132E-01  1.9149E-01
ac ID =   33377                 2.7015E-01 -8.2263E-01 -7.0859E-02  8.6874E-01
                               -3.7439E-01  1.0636E+01 -4.6984E+01  2.5147E+03

           1    2.00030E+00    -1.8416E-03 -4.1537E-03  1.5682E-01  1.5689E-01
ac ID =   33377                 2.0539E-01 -4.4437E-01 -1.4908E-01  5.1174E-01
                               -3.7444E-01  1.0641E+01 -4.6993E+01  2.5147E+03

           1    2.10029E+00    -2.5421E-02  2.5030E-03  2.8929E-03  2.5707E-02
ac ID =   33377                -7.7244E-02 -6.9576E-01  3.8047E-02  7.0107E-01
                               -3.7450E-01  1.0645E+01 -4.7003E+01  2.5147E+03

           1    2.20028E+00    -1.3070E-02  5.3052E-03  3.2613E-03  1.4478E-02
ac ID =   33377                -2.3102E-01 -6.5958E-01  2.9440E-02  6.9948E-01
                               -3.7456E-01  1.0650E+01 -4.7013E+01  2.5147E+03

           1    2.30027E+00     1.2321E-03  4.7134E-03  1.4866E-01  1.4874E-01
ac ID =   33377                -1.5291E-01 -8.1315E-01 -7.1345E-02  8.3047E-01
                               -3.7461E-01  1.0655E+01 -4.7024E+01  2.5147E+03

           1    2.40026E+00    -1.7232E-02 -1.3686E-03  1.8864E-01  1.8943E-01
ac ID =   33377                -1.5153E-01 -1.1883E+00  8.1337E-02  1.2007E+00
                               -3.7469E-01  1.0661E+01 -4.7035E+01  2.5147E+03

           1    2.50025E+00    -1.8577E-02  1.2277E-03  2.1828E-04  1.8619E-02
ac ID =   33377                -1.9197E-01 -8.8480E-01  1.2716E-01  9.1428E-01
                               -3.7479E-01  1.0665E+01 -4.7045E+01  2.5147E+03

           1    2.60024E+00    -6.7670E-03  5.7255E-03 -7.6774E-02  7.7284E-02
ac ID =   33377                -2.1015E-01 -1.8625E-01  3.8311E-02  2.8341E-01
                               -3.7490E-01  1.0671E+01 -4.7056E+01  2.5147E+03

           1    2.70023E+00    -1.2137E-02 -1.7338E-03  1.0351E-02  1.6045E-02
ac ID =   33377                 3.4183E-02 -2.2537E-01  3.8486E-02  2.3117E-01
                               -3.7501E-01  1.0676E+01 -4.7068E+01  2.5147E+03

           1    2.80022E+00    -5.3747E-03 -4.7514E-03  6.3401E-02  6.3806E-02
ac ID =   33377                 3.6553E-01 -1.3693E-01 -2.3758E-02  3.9106E-01
                               -3.7510E-01  1.0682E+01 -4.7079E+01  2.5147E+03

           1    2.90021E+00     5.2485E-03 -2.5355E-03 -9.9189E-03  1.1505E-02
ac ID =   33377                 1.4593E-01  3.1280E-01 -7.6882E-02  3.5363E-01
                               -3.7520E-01  1.0687E+01 -4.7090E+01  2.5147E+03

           1    3.00020E+00    -7.3290E-03  1.9752E-03 -8.9140E-02  8.9463E-02
ac ID =   33377                -3.5035E-02  7.8321E-02 -5.6498E-02  1.0273E-01
                               -3.7530E-01  1.0692E+01 -4.7101E+01  2.5147E+03

           1    3.10019E+00    -2.7075E-03  5.4563E-04 -9.0401E-03  9.4526E-03
ac ID =   33377                 3.6224E-02 -2.5813E-01 -2.8676E-02  2.6223E-01
                               -3.7538E-01  1.0698E+01 -4.7113E+01  2.5147E+03

           1    3.20018E+00     3.9449E-03  1.9547E-03  6.9722E-02  6.9861E-02
ac ID =   33377                -2.0708E-02 -3.4004E-01  2.4215E-02  3.4153E-01
                               -3.7545E-01  1.0703E+01 -4.7125E+01  2.5147E+03

           1    3.30017E+00     5.4776E-04  9.8487E-04  1.3356E-02  1.3404E-02
ac ID =   33377                -2.3181E-01 -3.6135E-01  1.0684E-01  4.4241E-01
                               -3.7554E-01  1.0708E+01 -4.7137E+01  2.5147E+03

           1    3.40016E+00    -2.5190E-03  3.0586E-03 -1.0130E-01  1.0138E-01
ac ID =   33377                -3.0519E-01 -2.8035E-02  1.1803E-01  3.2842E-01
                               -3.7565E-01  1.0713E+01 -4.7148E+01  2.5147E+03

           1    3.50015E+00    -4.3049E-03  3.2372E-03 -1.3410E-01  1.3420E-01
ac ID =   33377                -1.5695E-01  2.8907E-01  4.7948E-02  3.3240E-01
                               -3.7576E-01  1.0719E+01 -4.7160E+01  2.5147E+03

           1    3.60014E+00     8.5662E-03 -2.8704E-03 -5.7321E-02  5.8029E-02
ac ID =   33377                 1.2339E-01  7.9404E-01 -8.5882E-02  8.0815E-01
                               -3.7586E-01  1.0724E+01 -4.7172E+01  2.5147E+03

           1    3.70013E+00     1.5919E-02 -4.6627E-03 -5.3883E-02  5.6379E-02
ac ID =   33377                 3.0176E-01  9.4128E-01 -1.8001E-01  1.0047E+00
                               -3.7596E-01  1.0729E+01 -4.7183E+01  2.5147E+03

           1    3.80012E+00     1.4993E-02 -1.8166E-03 -1.4041E-01  1.4122E-01
ac ID =   33377                 2.0611E-01  1.2005E+00 -9.2837E-02  1.2216E+00
                               -3.7605E-01  1.0735E+01 -4.7195E+01  2.5147E+03

           1    3.90011E+00     1.6702E-02  7.1573E-05 -2.0509E-01  2.0577E-01
ac ID =   33377                 1.3954E-01  1.2902E+00 -7.0724E-02  1.2997E+00
                               -3.7613E-01  1.0740E+01 -4.7206E+01  2.5147E+03

           1    4.00010E+00     1.6100E-02  7.6659E-04 -1.6263E-01  1.6343E-01
ac ID =   33377                -8.9355E-02  1.0346E+00 -2.2694E-02  1.0387E+00
                               -3.7618E-01  1.0745E+01 -4.7217E+01  2.5147E+03

           1    4.10009E+00     2.0818E-02  8.4648E-04 -1.3021E-01  1.3186E-01
ac ID =   33377                -1.5340E-01  9.2216E-01 -3.9809E-02  9.3568E-01
                               -3.7622E-01  1.0751E+01 -4.7229E+01  2.5147E+03

           1    4.20008E+00     1.6534E-02  4.8402E-03 -1.7872E-01  1.7955E-01
ac ID =   33377                -3.1668E-01  9.0165E-01  9.8583E-02  9.6072E-01
                               -3.7628E-01  1.0756E+01 -4.7240E+01  2.5147E+03

           1    4.30007E+00     2.5777E-02  4.2094E-03 -2.8659E-01  2.8778E-01
ac ID =   33377                -3.4723E-01  1.4549E+00  5.4120E-02  1.4968E+00
                               -3.7635E-01  1.0762E+01 -4.7251E+01  2.5147E+03

           1    4.40006E+00     3.8956E-02  8.4358E-03 -2.6949E-01  2.7242E-01
ac ID =   33377                -2.7687E-01  1.7857E+00  1.0964E-02  1.8070E+00
                               -3.7641E-01  1.0769E+01 -4.7262E+01  2.5147E+03

           1    4.50005E+00     3.6157E-02 -3.6272E-04 -1.9455E-01  1.9788E-01
ac ID =   33377                 7.8362E-02  1.5772E+00 -4.7757E-02  1.5799E+00
                               -3.7648E-01  1.0776E+01 -4.7274E+01  2.5147E+03

           1    4.60004E+00     4.7523E-02 -6.2403E-03 -2.4543E-01  2.5006E-01
ac ID =   33377                 3.1395E-01  1.8671E+00 -1.3332E-01  1.8980E+00
                               -3.7656E-01  1.0783E+01 -4.7285E+01  2.5147E+03

           1    4.70003E+00     5.2453E-02  1.6459E-03 -3.3586E-01  3.3993E-01
ac ID =   33377                 9.9203E-02  2.0306E+00  6.2601E-03  2.0330E+00
                               -3.7661E-01  1.0791E+01 -4.7295E+01  2.5147E+03

           1    4.80002E+00     4.9244E-02  3.8395E-03 -3.7051E-01  3.7379E-01
ac ID =   33377                -8.4235E-02  1.9320E+00 -3.1861E-02  1.9341E+00
                               -3.7668E-01  1.0800E+01 -4.7307E+01  2.5147E+03

           1    4.90001E+00     5.8504E-02 -1.8045E-03 -3.2102E-01  3.2631E-01
ac ID =   33377                -1.3814E-02  2.1381E+00 -1.0741E-01  2.1409E+00
                               -3.7674E-01  1.0810E+01 -4.7318E+01  2.5147E+03

           1    5.00000E+00     6.6594E-02 -1.3374E-03 -3.1710E-01  3.2402E-01
ac ID =   33377                -2.2502E-01  2.1841E+00  6.5754E-02  2.1967E+00
                               -3.7678E-01  1.0820E+01 -4.7330E+01  2.5147E+03

           1    5.10049E+00     6.7344E-02  8.9847E-03 -4.1478E-01  4.2031E-01
ac ID =   33377                -5.1373E-01  2.2816E+00  1.5762E-01  2.3440E+00
                               -3.7686E-01  1.0832E+01 -4.7341E+01  2.5147E+03

           1    5.20048E+00     7.0576E-02  1.0659E-02 -4.4835E-01  4.5399E-01
ac ID =   33377                -4.2449E-01  2.6151E+00  8.5761E-02  2.6507E+00
                               -3.7698E-01  1.0845E+01 -4.7353E+01  2.5147E+03

           1    5.30047E+00     8.2342E-02 -5.8406E-03 -4.3357E-01  4.4136E-01
ac ID =   33377                -1.5743E-01  2.6537E+00 -1.1073E-01  2.6607E+00
                               -3.7707E-01  1.0860E+01 -4.7366E+01  2.5147E+03

           1    5.40046E+00     8.9600E-02  2.2200E-03 -4.3593E-01  4.4504E-01
ac ID =   33377                -1.4405E-01  2.8556E+00 -1.7153E-01  2.8644E+00
                               -3.7717E-01  1.0876E+01 -4.7378E+01  2.5147E+03

           1    5.50045E+00     9.0877E-02  9.0631E-04 -5.2292E-01  5.3076E-01
ac ID =   33377                 2.0605E-02  3.1095E+00 -1.6949E-01  3.1142E+00
                               -3.7734E-01  1.0893E+01 -4.7391E+01  2.5147E+03

           1    5.60044E+00     8.9505E-02 -4.5426E-04 -6.0552E-01  6.1210E-01
ac ID =   33377                 7.8578E-02  3.3440E+00  6.7138E-02  3.3456E+00
                               -3.7747E-01  1.0912E+01 -4.7404E+01  2.5147E+03

           1    5.70043E+00     9.4207E-02 -2.0279E-03 -6.2338E-01  6.3046E-01
ac ID =   33377                -4.8802E-02  3.3628E+00  1.6062E-01  3.3669E+00
                               -3.7757E-01  1.0932E+01 -4.7417E+01  2.5147E+03

           1    5.80042E+00     1.0716E-01  4.8651E-03 -5.9702E-01  6.0658E-01
ac ID =   33377                -2.7128E-01  3.5199E+00  4.6372E-02  3.5306E+00
                               -3.7771E-01  1.0955E+01 -4.7431E+01  2.5147E+03

           1    5.90041E+00     1.0694E-01  3.6007E-03 -6.1636E-01  6.2558E-01
ac ID =   33377                -1.5990E-01  3.6475E+00 -4.2678E-02  3.6513E+00
                               -3.7784E-01  1.0978E+01 -4.7445E+01  2.5147E+03

           1    6.00040E+00     1.0694E-01  6.4617E-04 -7.0108E-01  7.0919E-01
ac ID =   33377                -4.7259E-01  3.8312E+00  9.2763E-02  3.8613E+00
                               -3.7793E-01  1.1004E+01 -4.7459E+01  2.5147E+03

           1    6.10039E+00     1.1393E-01  7.6588E-03 -7.0959E-01  7.1872E-01
ac ID =   33377                -4.3417E-01  3.8531E+00 -2.5802E-02  3.8776E+00
                               -3.7808E-01  1.1031E+01 -4.7474E+01  2.5147E+03

           1    6.20038E+00     1.2285E-01  5.0750E-03 -6.9207E-01  7.0291E-01
ac ID =   33377                -3.7616E-01  3.7739E+00 -1.1008E-01  3.7942E+00
                               -3.7822E-01  1.1061E+01 -4.7489E+01  2.5147E+03

           1    6.30037E+00     1.1517E-01 -4.4171E-03 -7.2680E-01  7.3589E-01
ac ID =   33377                -4.9796E-02  3.7117E+00 -2.4906E-02  3.7121E+00
                               -3.7832E-01  1.1092E+01 -4.7504E+01  2.5147E+03

           1    6.40036E+00     1.1974E-01  3.1241E-03 -8.2949E-01  8.3809E-01
ac ID =   33377                -1.8022E-01  4.0886E+00 -2.1237E-02  4.0926E+00
                               -3.7847E-01  1.1126E+01 -4.7519E+01  2.5147E+03

           1    6.50035E+00     1.3279E-01  6.9067E-03 -8.8667E-01  8.9658E-01
ac ID =   33377                -2.4297E-01  4.7085E+00 -1.0040E-01  4.7159E+00
                               -3.7860E-01  1.1161E+01 -4.7535E+01  2.5147E+03

           1    6.60034E+00     1.2984E-01 -9.8701E-03 -8.8037E-01  8.8995E-01
ac ID =   33377                 1.7567E-01  4.6468E+00  6.4654E-02  4.6506E+00
                               -3.7867E-01  1.1199E+01 -4.7551E+01  2.5147E+03

           1    6.70033E+00     1.3491E-01  5.3852E-03 -8.9170E-01  9.0186E-01
ac ID =   33377                -4.0596E-01  4.8296E+00  1.4927E-01  4.8490E+00
                               -3.7875E-01  1.1238E+01 -4.7568E+01  2.5147E+03

           1    6.80032E+00     1.4933E-01  4.7300E-03 -9.4233E-01  9.5410E-01
ac ID =   33377                -2.5293E-01  5.0967E+00  1.5605E-01  5.1053E+00
                               -3.7886E-01  1.1280E+01 -4.7584E+01  2.5147E+03

           1    6.90031E+00     1.4067E-01 -2.3927E-03 -1.0208E+00  1.0304E+00
ac ID =   33377                -2.9582E-01  5.2041E+00  3.0488E-02  5.2126E+00
                               -3.7893E-01  1.1324E+01 -4.7601E+01  2.5147E+03

           1    7.00030E+00     1.4381E-01  5.0605E-03 -1.0287E+00  1.0387E+00
ac ID =   33377                -6.1089E-01  5.1848E+00 -1.0440E-01  5.2218E+00
                               -3.7900E-01  1.1369E+01 -4.7618E+01  2.5147E+03

           1    7.10029E+00     1.5619E-01  5.6020E-03 -1.0588E+00  1.0702E+00
ac ID =   33377                -4.0199E-01  5.4198E+00 -4.8663E-02  5.4349E+00
                               -3.7907E-01  1.1417E+01 -4.7635E+01  2.5147E+03

           1    7.20028E+00     1.5313E-01 -4.2773E-05 -1.1450E+00  1.1552E+00
ac ID =   33377                -3.2764E-01  5.7592E+00  2.3188E-01  5.7732E+00
                               -3.7913E-01  1.1468E+01 -4.7652E+01  2.5147E+03

           1    7.30027E+00     1.5706E-01  2.5389E-03 -1.2268E+00  1.2369E+00
ac ID =   33377                -2.0906E-01  6.1419E+00  1.7875E-01  6.1480E+00
                               -3.7917E-01  1.1520E+01 -4.7669E+01  2.5147E+03

           1    7.40026E+00     1.6948E-01  8.1556E-03 -1.2879E+00  1.2990E+00
ac ID =   33377                -3.3286E-01  6.6559E+00  9.4606E-02  6.6649E+00
                               -3.7919E-01  1.1574E+01 -4.7686E+01  2.5147E+03

           1    7.50025E+00     1.8144E-01 -4.0474E-03 -1.2785E+00  1.2913E+00
ac ID =   33377                -1.1678E-02  7.0121E+00 -9.5363E-02  7.0128E+00
                               -3.7916E-01  1.1630E+01 -4.7703E+01  2.5147E+03

           1    7.60024E+00     1.7591E-01 -6.7847E-04 -1.3136E+00  1.3254E+00
ac ID =   33377                -1.6402E-01  6.9855E+00 -8.9865E-02  6.9880E+00
                               -3.7909E-01  1.1689E+01 -4.7719E+01  2.5147E+03

           1    7.70023E+00     1.8087E-01  9.6961E-03 -1.3818E+00  1.3937E+00
ac ID =   33377                -4.9428E-01  7.1564E+00  9.2670E-02  7.1741E+00
                               -3.7900E-01  1.1749E+01 -4.7736E+01  2.5147E+03

           1    7.80022E+00     1.8598E-01  7.1185E-03 -1.4232E+00  1.4353E+00
ac ID =   33377                -3.9681E-01  7.1346E+00 -7.7063E-02  7.1460E+00
                               -3.7885E-01  1.1812E+01 -4.7752E+01  2.5147E+03

           1    7.90021E+00     1.8716E-01 -1.3059E-04 -1.4473E+00  1.4594E+00
ac ID =   33377                -5.1738E-01  7.2450E+00 -1.2570E-02  7.2635E+00
                               -3.7865E-01  1.1877E+01 -4.7767E+01  2.5147E+03

           1    8.00020E+00     1.9666E-01  1.0246E-02 -1.4989E+00  1.5118E+00
ac ID =   33377                -6.2466E-01  7.5929E+00 -1.7040E-01  7.6204E+00
                               -3.7847E-01  1.1944E+01 -4.7783E+01  2.5147E+03

           1    8.10019E+00     2.0814E-01  5.7955E-03 -1.5883E+00  1.6019E+00
ac ID =   33377                -5.5478E-01  8.1311E+00 -1.4819E-01  8.1514E+00
                               -3.7824E-01  1.2012E+01 -4.7798E+01  2.5147E+03

           1    8.20018E+00     2.1662E-01  6.1167E-03 -1.6549E+00  1.6691E+00
ac ID =   33377                -4.5412E-01  8.6794E+00  1.0961E-01  8.6920E+00
                               -3.7796E-01  1.2083E+01 -4.7812E+01  2.5147E+03

           1    8.30017E+00     2.1356E-01 -5.4468E-04 -1.6933E+00  1.7067E+00
ac ID =   33377                -1.2439E-01  8.8757E+00  1.0360E-01  8.8772E+00
                               -3.7768E-01  1.2157E+01 -4.7826E+01  2.5147E+03

           1    8.40016E+00     2.2367E-01  4.4808E-03 -1.7157E+00  1.7302E+00
ac ID =   33377                -2.4017E-01  9.2442E+00 -4.1984E-02  9.2474E+00
                               -3.7737E-01  1.2232E+01 -4.7839E+01  2.5147E+03

           1    8.50015E+00     2.3742E-01  1.6051E-02 -1.7827E+00  1.7985E+00
ac ID =   33377                -6.1938E-01  9.6681E+00 -5.9678E-02  9.6881E+00
                               -3.7701E-01  1.2309E+01 -4.7852E+01  2.5147E+03

           1    8.60014E+00     2.2265E-01  1.2778E-02 -1.8632E+00  1.8765E+00
ac ID =   33377                -6.7360E-01  9.7532E+00 -6.9618E-02  9.7766E+00
                               -3.7656E-01  1.2388E+01 -4.7864E+01  2.5147E+03

           1    8.70013E+00     2.3518E-01  3.9273E-03 -1.9100E+00  1.9244E+00
ac ID =   33377                -6.6931E-01  9.9760E+00 -1.1626E-01  9.9991E+00
                               -3.7599E-01  1.2469E+01 -4.7875E+01  2.5147E+03

           1    8.80012E+00     2.4008E-01  1.2144E-02 -1.9598E+00  1.9744E+00
ac ID =   33377                -1.0853E+00  1.0345E+01 -4.3586E-03  1.0402E+01
                               -3.7539E-01  1.2553E+01 -4.7885E+01  2.5147E+03

           1    8.90011E+00     2.5522E-01  1.3532E-02 -2.0152E+00  2.0313E+00
ac ID =   33377                -1.0332E+00  1.0781E+01  8.1085E-02  1.0831E+01
                               -3.7482E-01  1.2638E+01 -4.7895E+01  2.5147E+03

           1    9.00010E+00     2.6029E-01  4.4686E-03 -2.0944E+00  2.1105E+00
ac ID =   33377                -6.6820E-01  1.1224E+01  1.9519E-01  1.1245E+01
                               -3.7419E-01  1.2725E+01 -4.7903E+01  2.5147E+03

           1    9.10009E+00     2.7920E-01  2.3944E-03 -2.1478E+00  2.1658E+00
ac ID =   33377                -5.6678E-01  1.1853E+01  2.8205E-02  1.1867E+01
                               -3.7349E-01  1.2814E+01 -4.7910E+01  2.5147E+03

           1    9.20008E+00     2.7978E-01  1.2682E-02 -2.1774E+00  2.1953E+00
ac ID =   33377                -7.2805E-01  1.2093E+01 -5.6632E-02  1.2115E+01
                               -3.7277E-01  1.2905E+01 -4.7917E+01  2.5147E+03

           1    9.30007E+00     2.7299E-01 -1.9677E-03 -2.2231E+00  2.2398E+00
ac ID =   33377                -2.6969E-01  1.1934E+01  9.5947E-02  1.1938E+01
                               -3.7194E-01  1.2998E+01 -4.7922E+01  2.5147E+03

           1    9.40006E+00     2.8469E-01  9.2506E-03 -2.2905E+00  2.3081E+00
ac ID =   33377                -7.8680E-01  1.2196E+01  1.0227E-02  1.2221E+01
                               -3.7105E-01  1.3093E+01 -4.7926E+01  2.5147E+03

           1    9.50005E+00     2.8608E-01  1.1464E-02 -2.3485E+00  2.3659E+00
ac ID =   33377                -8.6932E-01  1.2703E+01  3.7027E-02  1.2733E+01
                               -3.7012E-01  1.3190E+01 -4.7928E+01  2.5147E+03

           1    9.60004E+00     2.9940E-01  1.5831E-02 -2.3758E+00  2.3947E+00
ac ID =   33377                -1.1253E+00  1.3011E+01 -9.2059E-03  1.3060E+01
                               -3.6910E-01  1.3288E+01 -4.7929E+01  2.5147E+03

           1    9.70003E+00     2.9527E-01 -5.1713E-04 -2.4013E+00  2.4194E+00
ac ID =   33377                -6.9869E-01  1.3300E+01 -6.0831E-03  1.3318E+01
                               -3.6801E-01  1.3388E+01 -4.7929E+01  2.5147E+03

           1    9.80002E+00     3.0921E-01  1.9688E-02 -2.4404E+00  2.4600E+00
ac ID =   33377                -1.2173E+00  1.3690E+01  9.7963E-03  1.3744E+01
                               -3.6693E-01  1.3490E+01 -4.7927E+01  2.5147E+03

           1    9.90001E+00     3.1224E-01  7.7001E-03 -2.4939E+00  2.5134E+00
ac ID =   33377                -6.8439E-01  1.3942E+01  3.3675E-02  1.3959E+01
                               -3.6576E-01  1.3593E+01 -4.7923E+01  2.5147E+03

           1    1.00005E+01     3.1337E-01 -7.2159E-03 -2.5477E+00  2.5669E+00
ac ID =   33377                -3.6878E-01  1.4129E+01  4.3829E-02  1.4134E+01
                               -3.6448E-01  1.3699E+01 -4.7918E+01  2.5147E+03

           1    1.01005E+01     3.1865E-01  1.4401E-03 -2.5847E+00  2.6043E+00
ac ID =   33377                -4.3284E-01  1.4482E+01 -7.0987E-02  1.4489E+01
                               -3.6318E-01  1.3805E+01 -4.7911E+01  2.5147E+03

           1    1.02005E+01     3.2634E-01  4.4547E-03 -2.6439E+00  2.6640E+00
ac ID =   33377                -5.2105E-01  1.4832E+01  4.6622E-02  1.4842E+01
                               -3.6178E-01  1.3913E+01 -4.7901E+01  2.5147E+03

           1    1.03005E+01     3.3151E-01  2.0612E-03 -2.7022E+00  2.7224E+00
ac ID =   33377                -5.0217E-01  1.5318E+01 -4.1251E-02  1.5327E+01
                               -3.6032E-01  1.4022E+01 -4.7890E+01  2.5147E+03

           1    1.04005E+01     3.2552E-01 -5.5526E-03 -2.7318E+00  2.7511E+00
ac ID =   33377                -5.2519E-01  1.5335E+01  1.1967E-01  1.5344E+01
                               -3.5876E-01  1.4132E+01 -4.7876E+01  2.5147E+03

           1    1.05004E+01     3.3605E-01  1.5372E-02 -2.7235E+00  2.7442E+00
ac ID =   33377                -8.8875E-01  1.5657E+01  1.9629E-01  1.5684E+01
                               -3.5718E-01  1.4244E+01 -4.7860E+01  2.5147E+03

           1    1.06004E+01     3.3884E-01  7.1625E-03 -2.7446E+00  2.7654E+00
ac ID =   33377                -6.8381E-01  1.5780E+01  1.9629E-01  1.5796E+01
                               -3.5550E-01  1.4357E+01 -4.7842E+01  2.5147E+03

           1    1.07004E+01     3.4563E-01 -3.1597E-03 -2.7860E+00  2.8074E+00
ac ID =   33377                -3.6860E-01  1.5819E+01  2.5333E-01  1.5825E+01
                               -3.5377E-01  1.4470E+01 -4.7821E+01  2.5147E+03

           1    1.08004E+01     3.5496E-01  5.6122E-03 -2.8490E+00  2.8710E+00
ac ID =   33377                -4.6781E-01  1.6207E+01  4.4356E-02  1.6214E+01
                               -3.5204E-01  1.4585E+01 -4.7798E+01  2.5147E+03

           1    1.09004E+01     3.5444E-01  6.2721E-03 -2.8708E+00  2.8926E+00
ac ID =   33377                -3.1019E-01  1.6286E+01 -7.8168E-02  1.6289E+01
                               -3.5023E-01  1.4701E+01 -4.7772E+01  2.5147E+03

           1    1.10004E+01     3.7213E-01 -4.9750E-03 -2.9072E+00  2.9309E+00
ac ID =   33377                 8.8715E-02  1.6641E+01 -1.8401E-01  1.6642E+01
                               -3.4833E-01  1.4817E+01 -4.7744E+01  2.5147E+03

           1    1.11004E+01     3.7780E-01 -1.0033E-03 -2.9423E+00  2.9665E+00
ac ID =   33377                 9.2513E-03  1.7344E+01  1.0934E-02  1.7344E+01
                               -3.4637E-01  1.4935E+01 -4.7713E+01  2.5147E+03

           1    1.12004E+01     3.7441E-01 -1.6971E-03 -2.9612E+00  2.9848E+00
ac ID =   33377                -1.0341E-01  1.7671E+01  1.6741E-01  1.7672E+01
                               -3.4434E-01  1.5054E+01 -4.7680E+01  2.5147E+03

           1    1.13004E+01     3.8470E-01 -8.0518E-04 -2.9754E+00  3.0002E+00
ac ID =   33377                -2.0962E-01  1.8096E+01  5.1203E-02  1.8097E+01
                               -3.4225E-01  1.5174E+01 -4.7644E+01  2.5147E+03

           1    1.14004E+01     3.9081E-01  1.9057E-03 -2.9635E+00  2.9892E+00
ac ID =   33377                -1.2579E-01  1.7946E+01 -7.8026E-02  1.7947E+01
                               -3.4009E-01  1.5295E+01 -4.7606E+01  2.5147E+03

           1    1.15003E+01     3.9330E-01  3.7493E-03 -2.9594E+00  2.9854E+00
ac ID =   33377                -3.8263E-01  1.8319E+01 -1.0179E-01  1.8323E+01
                               -3.3786E-01  1.5417E+01 -4.7566E+01  2.5147E+03

           1    1.16003E+01     3.8498E-01 -2.0829E-03 -2.9967E+00  3.0213E+00
ac ID =   33377                 3.0381E-03  1.8300E+01  6.1977E-02  1.8300E+01
                               -3.3560E-01  1.5539E+01 -4.7522E+01  2.5147E+03

           1    1.17003E+01     4.0902E-01 -5.7456E-03 -3.0219E+00  3.0495E+00
ac ID =   33377                 3.7623E-02  1.8988E+01  1.0538E-01  1.8989E+01
                               -3.3327E-01  1.5663E+01 -4.7476E+01  2.5147E+03

           1    1.18003E+01     3.4905E-01 -5.8387E-03 -2.9281E+00  2.9488E+00
ac ID =   33377                 1.4714E-01  1.8020E+01  2.6802E-01  1.8022E+01
                               -3.3090E-01  1.5786E+01 -4.7427E+01  2.5147E+03

           1    1.19003E+01     4.1536E-01 -2.4420E-02 -2.9675E+00  2.9966E+00
ac ID =   33377                 8.7287E-01  1.8965E+01  3.2799E-02  1.8985E+01
                               -3.2860E-01  1.5910E+01 -4.7375E+01  2.5147E+03

           1    1.20003E+01     3.8866E-01 -3.7390E-03 -2.9857E+00  3.0109E+00
ac ID =   33377                 3.2830E-01  1.9040E+01  1.8781E-01  1.9044E+01
                               -3.2630E-01  1.6035E+01 -4.7320E+01  2.5147E+03

           1    1.21003E+01     3.7042E-01 -6.7702E-03 -2.9920E+00  3.0148E+00
ac ID =   33377                 2.2849E-01  1.8530E+01  3.3237E-01  1.8535E+01
                               -3.2397E-01  1.6159E+01 -4.7261E+01  2.5147E+03

           1    1.22003E+01     3.8268E-01 -2.3303E-02 -2.9182E+00  2.9433E+00
ac ID =   33377                 6.9974E-01  1.8925E+01  4.1738E-01  1.8943E+01
                               -3.2168E-01  1.6283E+01 -4.7200E+01  2.5147E+03

           1    1.23003E+01     3.9300E-01 -5.4974E-03 -2.8280E+00  2.8552E+00
ac ID =   33377                 9.9547E-02  1.8079E+01  4.0498E-01  1.8084E+01
                               -3.1932E-01  1.6408E+01 -4.7135E+01  2.5147E+03

           1    1.24003E+01     4.1527E-01  1.3275E-04 -2.8904E+00  2.9200E+00
ac ID =   33377                -1.2588E-01  1.8819E+01 -7.4953E-02  1.8820E+01
                               -3.1704E-01  1.6532E+01 -4.7066E+01  2.5147E+03

           1    1.25002E+01     3.3687E-01  3.1766E-03 -2.8775E+00  2.8972E+00
ac ID =   33377                 1.6151E-01  1.7691E+01 -2.6981E-01  1.7693E+01
                               -3.1479E-01  1.6657E+01 -4.6995E+01  2.5147E+03

           1    1.26002E+01     3.9930E-01 -1.2539E-02 -2.8282E+00  2.8563E+00
ac ID =   33377                -2.4663E-02  1.8709E+01  2.9848E-01  1.8711E+01
                               -3.1234E-01  1.6782E+01 -4.6921E+01  2.5147E+03

           1    1.27002E+01     3.9720E-01 -1.5386E-03 -2.7861E+00  2.8143E+00
ac ID =   33377                 1.1897E-01  1.8522E+01  9.1889E-01  1.8546E+01
                               -3.0996E-01  1.6906E+01 -4.6843E+01  2.5147E+03

           1    1.28002E+01     3.9126E-01  7.7468E-03 -2.7650E+00  2.7925E+00
ac ID =   33377                 5.5536E-01  1.8020E+01  4.7682E-01  1.8035E+01
                               -3.0762E-01  1.7031E+01 -4.6762E+01  2.5147E+03

           1    1.29002E+01     3.6251E-01 -1.0185E-02 -2.7611E+00  2.7848E+00
ac ID =   33377                 2.5701E-01  1.8133E+01 -1.5996E-01  1.8135E+01
                               -3.0508E-01  1.7155E+01 -4.6678E+01  2.5147E+03

           1    1.30002E+01     4.0017E-01 -4.9754E-03 -2.6972E+00  2.7267E+00
ac ID =   33377                 7.5212E-02  1.7935E+01 -1.0307E+00  1.7965E+01
                               -3.0259E-01  1.7279E+01 -4.6591E+01  2.5147E+03

           1    1.31002E+01     3.7645E-01  1.6185E-02 -2.6513E+00  2.6779E+00
ac ID =   33377                -1.6997E-01  1.7751E+01 -6.7924E-01  1.7765E+01
                               -3.0010E-01  1.7404E+01 -4.6501E+01  2.5147E+03

           1    1.32002E+01     3.7040E-01  1.1073E-03 -2.6328E+00  2.6587E+00
ac ID =   33377                -1.9411E-01  1.7414E+01  3.4461E-01  1.7419E+01
                               -2.9749E-01  1.7528E+01 -4.6408E+01  2.5147E+03

           1    1.33002E+01     3.9057E-01  1.3281E-02 -2.5991E+00  2.6283E+00
ac ID =   33377                -3.5146E-01  1.7395E+01  4.6922E-01  1.7405E+01
                               -2.9497E-01  1.7652E+01 -4.6312E+01  2.5147E+03

           1    1.34002E+01     3.8596E-01  1.3763E-02 -2.5375E+00  2.5667E+00
ac ID =   33377                -5.3228E-01  1.7102E+01 -1.7209E-01  1.7111E+01
                               -2.9246E-01  1.7776E+01 -4.6214E+01  2.5147E+03

           1    1.35001E+01     3.8893E-01  7.5665E-03 -2.5123E+00  2.5422E+00
ac ID =   33377                -5.0423E-01  1.6947E+01 -8.2099E-01  1.6975E+01
                               -2.8990E-01  1.7901E+01 -4.6112E+01  2.5147E+03

           1    1.36001E+01     3.7945E-01  9.7701E-03 -2.4301E+00  2.4595E+00
ac ID =   33377                -2.2815E-01  1.6525E+01 -3.7909E-01  1.6531E+01
                               -2.8742E-01  1.8026E+01 -4.6009E+01  2.5147E+03

           1    1.37001E+01     3.8418E-01 -1.1832E-03 -2.3349E+00  2.3663E+00
ac ID =   33377                 1.5198E-01  1.6281E+01  3.8753E-01  1.6287E+01
                               -2.8494E-01  1.8150E+01 -4.5903E+01  2.5147E+03

           1    1.38001E+01     3.9365E-01  2.7381E-02 -2.3611E+00  2.3938E+00
ac ID =   33377                -6.3187E-01  1.6189E+01  6.8817E-02  1.6202E+01
                               -2.8247E-01  1.8275E+01 -4.5794E+01  2.5147E+03

           1    1.39001E+01     3.7634E-01  1.1765E-02 -2.2790E+00  2.3099E+00
ac ID =   33377                -7.1283E-01  1.5473E+01  1.8943E-01  1.5490E+01
                               -2.7999E-01  1.8401E+01 -4.5684E+01  2.5147E+03

           1    1.40001E+01     3.5046E-01 -6.0897E-03 -2.1087E+00  2.1376E+00
ac ID =   33377                 1.6529E-01  1.4555E+01 -2.1551E-01  1.4557E+01
                               -2.7761E-01  1.8526E+01 -4.5571E+01  2.5147E+03

           1    1.41001E+01     3.7017E-01  1.3420E-02 -2.1064E+00  2.1388E+00
ac ID =   33377                -1.1320E+00  1.4712E+01 -1.7258E-01  1.4756E+01
                               -2.7520E-01  1.8651E+01 -4.5456E+01  2.5147E+03

           1    1.42001E+01     3.7917E-01  4.6297E-02 -2.1161E+00  2.1503E+00
ac ID =   33377                -1.6479E+00  1.4900E+01  6.5104E-02  1.4991E+01
                               -2.7297E-01  1.8777E+01 -4.5339E+01  2.5147E+03

           1    1.43001E+01     3.5204E-01  4.6636E-03 -1.9673E+00  1.9985E+00
ac ID =   33377                -5.2634E-01  1.3764E+01 -1.1284E-02  1.3774E+01
                               -2.7078E-01  1.8904E+01 -4.5221E+01  2.5147E+03

           1    1.44001E+01     3.5812E-01 -1.4669E-03 -1.8791E+00  1.9129E+00
ac ID =   33377                -6.7717E-01  1.3436E+01  1.2836E-01  1.3453E+01
                               -2.6854E-01  1.9030E+01 -4.5100E+01  2.5147E+03

           1    1.45000E+01     3.8217E-01  3.5706E-02 -1.8751E+00  1.9139E+00
ac ID =   33377                -1.5479E+00  1.3914E+01 -2.1585E-01  1.4002E+01
                               -2.6653E-01  1.9157E+01 -4.4979E+01  2.5147E+03

           1    1.46000E+01     3.2468E-01  1.0873E-02 -1.8065E+00  1.8355E+00
ac ID =   33377                -4.3448E-01  1.2599E+01 -4.2424E-01  1.2613E+01
                               -2.6459E-01  1.9285E+01 -4.4855E+01  2.5147E+03

           1    1.47000E+01     3.1859E-01 -9.2859E-03 -1.7544E+00  1.7831E+00
ac ID =   33377                -3.0611E-01  1.1611E+01 -3.0351E-01  1.1619E+01
                               -2.6252E-01  1.9413E+01 -4.4731E+01  2.5147E+03

           1    1.48005E+01     3.7155E-01  1.1205E-02 -1.7089E+00  1.7489E+00
ac ID =   33377                -8.9208E-01  1.2691E+01 -3.6127E-01  1.2728E+01
                               -2.6066E-01  1.9542E+01 -4.4604E+01  2.5147E+03

           1    1.49005E+01     3.2045E-01  3.4843E-02 -1.6207E+00  1.6525E+00
ac ID =   33377                -1.5654E+00  1.1194E+01 -6.8443E-02  1.1303E+01
                               -2.5893E-01  1.9672E+01 -4.4478E+01  2.5147E+03

           1    1.50005E+01     2.8137E-01 -9.1456E-03 -1.5427E+00  1.5681E+00
ac ID =   33377                -4.3799E-01  1.0273E+01 -5.6360E-02  1.0283E+01
                               -2.5715E-01  1.9802E+01 -4.4350E+01  2.5147E+03

           1    1.51005E+01     3.5127E-01 -7.6522E-03 -1.5222E+00  1.5622E+00
ac ID =   33377                -8.3914E-01  1.1645E+01 -3.4745E-01  1.1680E+01
                               -2.5547E-01  1.9933E+01 -4.4221E+01  2.5147E+03

           1    1.52005E+01     2.9326E-01  3.2093E-02 -1.4048E+00  1.4355E+00
ac ID =   33377                -1.2590E+00  9.7382E+00  1.6053E-02  9.8193E+00
                               -2.5416E-01  2.0064E+01 -4.4092E+01  2.5147E+03

           1    1.53005E+01     2.4827E-01  1.5963E-02 -1.2755E+00  1.2995E+00
ac ID =   33377                -1.1291E+00  8.4570E+00  2.4231E-01  8.5355E+00
                               -2.5272E-01  2.0196E+01 -4.3961E+01  2.5147E+03

           1    1.54005E+01     2.9230E-01 -6.6421E-03 -1.2285E+00  1.2628E+00
ac ID =   33377                -1.4366E-01  8.8675E+00 -2.5835E-02  8.8687E+00
                               -2.5137E-01  2.0328E+01 -4.3830E+01  2.5147E+03

           1    1.55004E+01     2.5714E-01  2.1545E-03 -1.1850E+00  1.2126E+00
ac ID =   33377                -7.6976E-01  7.8831E+00 -6.1888E-02  7.9209E+00
                               -2.5010E-01  2.0461E+01 -4.3698E+01  2.5147E+03

           1    1.56004E+01     2.1901E-01  3.6033E-02 -1.0975E+00  1.1197E+00
ac ID =   33377                -1.2061E+00  6.5553E+00 -1.4062E-01  6.6668E+00
                               -2.4893E-01  2.0594E+01 -4.3564E+01  2.5147E+03

           1    1.57004E+01     2.3932E-01 -1.0845E-02 -9.7508E-01  1.0041E+00
ac ID =   33377                -2.8197E-01  6.6867E+00 -1.3207E-01  6.6939E+00
                               -2.4768E-01  2.0728E+01 -4.3431E+01  2.5147E+03

           1    1.58004E+01     2.5492E-01  2.1889E-02 -9.3487E-01  9.6925E-01
ac ID =   33377                -9.8181E-01  6.6363E+00 -8.3239E-02  6.7090E+00
                               -2.4656E-01  2.0861E+01 -4.3296E+01  2.5147E+03

           1    1.59004E+01     1.6403E-01  2.2510E-03 -8.4511E-01  8.6088E-01
ac ID =   33377                -8.2575E-01  4.6453E+00 -5.4734E-01  4.7497E+00
                               -2.4546E-01  2.0995E+01 -4.3161E+01  2.5147E+03

           1    1.60004E+01     2.2537E-01  1.6941E-02 -7.8596E-01  8.1781E-01
ac ID =   33377                -8.7726E-01  5.5443E+00 -6.5308E-01  5.6511E+00
                               -2.4446E-01  2.1129E+01 -4.3025E+01  2.5147E+03

           1    1.61004E+01     1.7071E-01 -7.6565E-03 -6.9239E-01  7.1316E-01
ac ID =   33377                -2.4181E-01  4.0670E+00  6.4012E-03  4.0742E+00
                               -2.4341E-01  2.1263E+01 -4.2888E+01  2.5147E+03

           1    1.62004E+01     1.7777E-01  1.0816E-02 -6.2907E-01  6.5380E-01
ac ID =   33377                -5.0722E-01  4.1165E+00  3.2688E-01  4.1605E+00
                               -2.4249E-01  2.1397E+01 -4.2751E+01  2.5147E+03

           1    1.63004E+01     1.7128E-01  1.6135E-02 -5.7368E-01  5.9892E-01
ac ID =   33377                -8.0700E-01  4.5421E+00  2.4598E-01  4.6198E+00
                               -2.4159E-01  2.1531E+01 -4.2614E+01  2.5147E+03

           1    1.64004E+01     1.5900E-01 -1.4984E-02 -5.1103E-01  5.3540E-01
ac ID =   33377                -1.1221E-01  4.1332E+00 -4.5533E-01  4.1597E+00
                               -2.4067E-01  2.1666E+01 -4.2477E+01  2.5147E+03

           1    1.65003E+01     2.0686E-01 -1.1909E-03 -4.9589E-01  5.3731E-01
ac ID =   33377                -5.2891E-01  5.8357E+00 -4.7276E-02  5.8598E+00
                               -2.3981E-01  2.1800E+01 -4.2339E+01  2.5147E+03

           1    1.66003E+01     1.6124E-01  4.9224E-03 -3.8679E-01  4.1908E-01
ac ID =   33377                -7.9331E-01  5.5354E+00  6.1250E-01  5.6254E+00
                               -2.3897E-01  2.1935E+01 -4.2202E+01  2.5147E+03

           1    1.67003E+01     1.7783E-01  2.7110E-02 -3.1755E-01  3.6496E-01
ac ID =   33377                -9.5442E-01  6.2103E+00  6.0853E-01  6.3126E+00
                               -2.3823E-01  2.2070E+01 -4.2064E+01  2.5147E+03

           1    1.68003E+01     1.9053E-01 -3.3618E-02 -3.1450E-01  3.6925E-01
ac ID =   33377                -6.6869E-02  6.6626E+00  2.9036E-01  6.6693E+00
                               -2.3730E-01  2.2205E+01 -4.1927E+01  2.5147E+03

           1    1.69003E+01     1.6276E-01 -5.6417E-03 -2.3906E-01  2.8926E-01
ac ID =   33377                -4.8177E-01  6.1646E+00 -3.2402E-01  6.1919E+00
                               -2.3656E-01  2.2339E+01 -4.1790E+01  2.5147E+03

           1    1.70003E+01     1.8070E-01  3.0760E-02 -1.0832E-01  2.1291E-01
ac ID =   33377                -1.0031E+00  6.8244E+00 -5.7221E-01  6.9214E+00
                               -2.3590E-01  2.2474E+01 -4.1653E+01  2.5147E+03

           1    1.71003E+01     1.5285E-01 -9.2536E-03 -8.5550E-02  1.7541E-01
ac ID =   33377                 2.1839E-02  6.0916E+00  1.8643E-01  6.0945E+00
                               -2.3505E-01  2.2609E+01 -4.1517E+01  2.5147E+03

           1    1.72003E+01     1.9253E-01 -2.8409E-02 -6.6944E-02  2.0580E-01
ac ID =   33377                 1.1605E-01  7.5540E+00  3.7240E-01  7.5640E+00
                               -2.3428E-01  2.2744E+01 -4.1381E+01  2.5147E+03

           1    1.73003E+01     1.5634E-01  2.5781E-02  2.5652E-02  1.6051E-01
ac ID =   33377                -1.0713E+00  6.7050E+00  1.3578E-01  6.7914E+00
                               -2.3363E-01  2.2879E+01 -4.1246E+01  2.5147E+03

           1    1.74003E+01     1.7956E-01  1.5498E-02  9.0291E-02  2.0158E-01
ac ID =   33377                -8.4324E-01  7.5421E+00 -6.6905E-01  7.6185E+00
                               -2.3290E-01  2.3014E+01 -4.1112E+01  2.5147E+03

           1    1.75002E+01     1.7463E-01 -2.9754E-02  1.5681E-01  2.3658E-01
ac ID =   33377                -1.4715E-01  7.3743E+00 -1.0588E+00  7.4514E+00
                               -2.3213E-01  2.3149E+01 -4.0979E+01  2.5147E+03

           1    1.76002E+01     1.6163E-01  8.5728E-03  1.9088E-01  2.5027E-01
ac ID =   33377                -9.3168E-01  6.6921E+00 -3.2257E-01  6.7644E+00
                               -2.3155E-01  2.3283E+01 -4.0847E+01  2.5147E+03

           1    1.77002E+01     1.4479E-01  2.2516E-02  2.4744E-01  2.8757E-01
ac ID =   33377                -1.4287E+00  6.4619E+00  4.3787E-01  6.6324E+00
                               -2.3094E-01  2.3419E+01 -4.0716E+01  2.5147E+03

           1    1.78002E+01     1.2543E-01 -4.6376E-03  3.1998E-01  3.4372E-01
ac ID =   33377                -4.7566E-01  5.0128E+00  6.8846E-01  5.0822E+00
                               -2.3033E-01  2.3554E+01 -4.0586E+01  2.5147E+03

           1    1.79002E+01     1.5162E-01 -2.6375E-02  3.7621E-01  4.0647E-01
ac ID =   33377                -2.4699E-01  5.5928E+00 -1.0118E-01  5.5992E+00
                               -2.2978E-01  2.3689E+01 -4.0458E+01  2.5147E+03

           1    1.80002E+01     1.2773E-01  3.4782E-02  4.0720E-01  4.2818E-01
ac ID =   33377                -1.7687E+00  5.0624E+00 -7.5635E-01  5.4155E+00
                               -2.2928E-01  2.3825E+01 -4.0331E+01  2.5147E+03

           1    1.81002E+01     1.1785E-01 -3.8136E-03  4.2325E-01  4.3936E-01
ac ID =   33377                -8.5228E-01  4.6003E+00 -2.7698E-01  4.6867E+00
                               -2.2878E-01  2.3961E+01 -4.0206E+01  2.5147E+03

           1    1.82002E+01     1.4304E-01 -1.6639E-02  4.8206E-01  5.0311E-01
ac ID =   33377                -4.8109E-01  5.2076E+00  4.4466E-01  5.2486E+00
                               -2.2835E-01  2.4097E+01 -4.0082E+01  2.5147E+03

           1    1.83002E+01     9.9655E-02  2.8459E-02  5.3901E-01  5.4888E-01
ac ID =   33377                -1.5949E+00  3.5715E+00  5.0456E-01  3.9439E+00
                               -2.2799E-01  2.4234E+01 -3.9960E+01  2.5147E+03

           1    1.84002E+01     8.8428E-02  2.4917E-02  5.7421E-01  5.8151E-01
ac ID =   33377                -2.0200E+00  3.2889E+00 -1.1457E-01  3.8614E+00
                               -2.2767E-01  2.4370E+01 -3.9840E+01  2.5147E+03

           1    1.85001E+01     9.7053E-02 -1.9834E-02  5.8818E-01  5.9646E-01
ac ID =   33377                -5.3120E-01  2.8923E+00 -8.3061E-01  3.0558E+00
                               -2.2744E-01  2.4507E+01 -3.9721E+01  2.5147E+03

           1    1.86001E+01     9.8812E-02  1.4818E-02  6.1660E-01  6.2464E-01
ac ID =   33377                -1.5153E+00  2.9736E+00 -3.4714E-01  3.3554E+00
                               -2.2728E-01  2.4645E+01 -3.9604E+01  2.5147E+03

           1    1.87001E+01     7.4399E-02  3.8645E-02  6.8178E-01  6.8691E-01
ac ID =   33377                -2.2002E+00  2.4314E+00  3.7402E-01  3.3004E+00
                               -2.2725E-01  2.4782E+01 -3.9489E+01  2.5147E+03

           1    1.88001E+01     7.3994E-02 -1.2651E-03  7.1037E-01  7.1421E-01
ac ID =   33377                -1.1532E+00  2.2963E+00  9.3861E-02  2.5713E+00
                               -2.2726E-01  2.4920E+01 -3.9376E+01  2.5147E+03

           1    1.89001E+01     7.9919E-02  2.0236E-03  7.0487E-01  7.0939E-01
ac ID =   33377                -1.4422E+00  2.3520E+00 -4.6555E-01  2.7979E+00
                               -2.2735E-01  2.5059E+01 -3.9265E+01  2.5147E+03

           1    1.90001E+01     6.3900E-02  1.8901E-02  7.5240E-01  7.5535E-01
ac ID =   33377                -1.7387E+00  1.4535E+00 -7.3374E-01  2.3820E+00
                               -2.2755E-01  2.5197E+01 -3.9156E+01  2.5147E+03

           1    1.91001E+01     6.1847E-02  3.0072E-02  8.1640E-01  8.1929E-01
ac ID =   33377                -2.1398E+00  1.3739E+00 -5.2953E-01  2.5975E+00
                               -2.2789E-01  2.5336E+01 -3.9049E+01  2.5147E+03

           1    1.92001E+01     8.8473E-02 -1.1366E-02  8.0477E-01  8.0970E-01
ac ID =   33377                -1.1578E+00  1.5004E+00 -3.1981E-01  1.9220E+00
                               -2.2826E-01  2.5476E+01 -3.8944E+01  2.5147E+03

           1    1.93001E+01     3.2393E-02  1.5345E-02  8.5163E-01  8.5238E-01
ac ID =   33377                -2.1903E+00  4.5386E-01  1.9774E-01  2.2455E+00
                               -2.2875E-01  2.5616E+01 -3.8841E+01  2.5147E+03

           1    1.94001E+01     6.1523E-02  3.3468E-02  8.5472E-01  8.5758E-01
ac ID =   33377                -2.1993E+00  3.0523E-01  5.0620E-02  2.2209E+00
                               -2.2941E-01  2.5756E+01 -3.8740E+01  2.5147E+03

           1    1.95000E+01     5.6550E-02  8.3609E-03  8.7767E-01  8.7953E-01
ac ID =   33377                -1.8652E+00 -2.2256E-01 -1.8481E-01  1.8875E+00
                               -2.3012E-01  2.5897E+01 -3.8641E+01  2.5147E+03

           1    1.96000E+01     4.7648E-02  6.3867E-03  9.1765E-01  9.1891E-01
ac ID =   33377                -1.6572E+00 -8.1719E-01 -4.0789E-01  1.8922E+00
                               -2.3095E-01  2.6038E+01 -3.8545E+01  2.5147E+03

           1    1.97005E+01     4.2321E-02  2.5392E-02  9.2381E-01  9.2513E-01
ac ID =   33377                -2.3153E+00 -9.0028E-01 -3.0179E-01  2.5024E+00
                               -2.3190E-01  2.6180E+01 -3.8450E+01  2.5147E+03

           1    1.98005E+01     3.7974E-02  1.8690E-02  9.1041E-01  9.1140E-01
ac ID =   33377                -1.9255E+00 -1.3563E+00  1.8019E-01  2.3621E+00
                               -2.3300E-01  2.6322E+01 -3.8359E+01  2.5147E+03

           1    1.99005E+01     4.6660E-02  2.5853E-03  9.4601E-01  9.4716E-01
ac ID =   33377                -1.2788E+00 -1.6521E+00  2.6629E-01  2.1060E+00
                               -2.3416E-01  2.6465E+01 -3.8269E+01  2.5147E+03

           1    2.00005E+01     3.2460E-02  2.2241E-02  9.8118E-01  9.8196E-01
ac ID =   33377                -2.0489E+00 -2.2942E+00 -3.3110E-01  3.0936E+00
                               -2.3541E-01  2.6608E+01 -3.8182E+01  2.5147E+03

           1    2.01005E+01     2.4388E-02  1.2197E-02  9.9012E-01  9.9049E-01
ac ID =   33377                -1.9433E+00 -2.8063E+00 -7.0217E-01  3.4850E+00
                               -2.3681E-01  2.6752E+01 -3.8097E+01  2.5147E+03

           1    2.02005E+01     2.5439E-02  1.9809E-02  9.8120E-01  9.8173E-01
ac ID =   33377                -1.7756E+00 -3.0138E+00 -3.9625E-01  3.5204E+00
                               -2.3833E-01  2.6896E+01 -3.8015E+01  2.5147E+03

           1    2.03005E+01     3.4545E-02 -6.6601E-05  9.6915E-01  9.6977E-01
ac ID =   33377                -1.6522E+00 -2.9834E+00 -1.3155E-02  3.4104E+00
                               -2.3985E-01  2.7041E+01 -3.7935E+01  2.5147E+03

           1    2.04005E+01     1.5310E-02  2.7647E-02  9.9576E-01  9.9626E-01
ac ID =   33377                -2.0158E+00 -3.6962E+00  2.9370E-01  4.2204E+00
                               -2.4160E-01  2.7186E+01 -3.7858E+01  2.5147E+03

           1    2.05004E+01     3.9292E-02  2.3611E-02  9.8597E-01  9.8704E-01
ac ID =   33377                -1.8559E+00 -3.4656E+00 -2.8461E-01  3.9416E+00
                               -2.4342E-01  2.7332E+01 -3.7782E+01  2.5147E+03

           1    2.06004E+01     2.9538E-02 -5.2022E-03  9.7181E-01  9.7227E-01
ac ID =   33377                -1.3743E+00 -3.3591E+00 -7.2691E-01  3.7015E+00
                               -2.4527E-01  2.7478E+01 -3.7710E+01  2.5147E+03

           1    2.07004E+01     1.6965E-02  9.1254E-03  9.9293E-01  9.9311E-01
ac ID =   33377                -1.3540E+00 -3.9327E+00 -4.5257E-01  4.1838E+00
                               -2.4727E-01  2.7625E+01 -3.7639E+01  2.5147E+03

           1    2.08004E+01     2.6840E-02  2.2647E-02  9.7367E-01  9.7430E-01
ac ID =   33377                -1.6745E+00 -3.6779E+00  6.5809E-02  4.0417E+00
                               -2.4936E-01  2.7772E+01 -3.7571E+01  2.5147E+03

           1    2.09004E+01     3.2199E-02  1.0959E-02  9.5781E-01  9.5841E-01
ac ID =   33377                -1.1124E+00 -3.7547E+00 -6.8160E-02  3.9166E+00
                               -2.5153E-01  2.7920E+01 -3.7505E+01  2.5147E+03

           1    2.10004E+01     8.6535E-03 -1.2861E-02  9.7196E-01  9.7208E-01
ac ID =   33377                -9.3767E-01 -4.5572E+00 -2.4435E-01  4.6591E+00
                               -2.5368E-01  2.8069E+01 -3.7442E+01  2.5147E+03

           1    2.11004E+01     2.9627E-02  2.1055E-02  9.3422E-01  9.3493E-01
ac ID =   33377                -1.5208E+00 -4.3827E+00 -3.9701E-01  4.6560E+00
                               -2.5605E-01  2.8218E+01 -3.7381E+01  2.5147E+03

           1    2.12004E+01     2.5912E-02  1.6743E-02  9.1727E-01  9.1779E-01
ac ID =   33377                -1.5448E+00 -4.4669E+00 -8.4479E-02  4.7273E+00
                               -2.5841E-01  2.8367E+01 -3.7322E+01  2.5147E+03

           1    2.13004E+01     2.9288E-02 -1.3011E-02  9.2895E-01  9.2950E-01
ac ID =   33377                -5.6367E-01 -5.1295E+00  1.0631E-01  5.1614E+00
                               -2.6085E-01  2.8517E+01 -3.7265E+01  2.5147E+03

           1    2.14004E+01     3.6044E-02  2.0302E-02  8.9863E-01  8.9958E-01
ac ID =   33377                -1.6045E+00 -4.9868E+00  1.7177E-01  5.2413E+00
                               -2.6336E-01  2.8668E+01 -3.7211E+01  2.5147E+03

           1    2.15003E+01     3.0174E-02  1.4022E-02  8.7300E-01  8.7363E-01
ac ID =   33377                -1.2448E+00 -5.2882E+00 -3.3756E-02  5.4328E+00
                               -2.6595E-01  2.8819E+01 -3.7159E+01  2.5147E+03

           1    2.16003E+01     1.5100E-02 -1.0216E-03  8.6576E-01  8.6590E-01
ac ID =   33377                -6.6207E-01 -5.9131E+00 -2.9360E-01  5.9573E+00
                               -2.6858E-01  2.8970E+01 -3.7108E+01  2.5147E+03

           1    2.17003E+01     2.6664E-02 -2.6761E-03  8.5563E-01  8.5605E-01
ac ID =   33377                -6.4498E-01 -5.8280E+00 -3.0484E-01  5.8715E+00
                               -2.7124E-01  2.9122E+01 -3.7060E+01  2.5147E+03

           1    2.18003E+01     3.0810E-02  2.4490E-02  8.5178E-01  8.5269E-01
ac ID =   33377                -1.2601E+00 -6.0206E+00 -2.0769E-01  6.1545E+00
                               -2.7400E-01  2.9274E+01 -3.7014E+01  2.5147E+03

           1    2.19003E+01     2.7192E-02 -2.1451E-03  8.1985E-01  8.2030E-01
ac ID =   33377                -6.3181E-01 -6.2840E+00 -9.0241E-02  6.3163E+00
                               -2.7676E-01  2.9427E+01 -3.6970E+01  2.5147E+03

           1    2.20003E+01     4.2763E-02 -1.3590E-02  7.9603E-01  7.9729E-01
ac ID =   33377                -3.2780E-01 -6.0123E+00 -8.2754E-03  6.0212E+00
                               -2.7957E-01  2.9580E+01 -3.6928E+01  2.5147E+03

           1    2.21003E+01     4.8633E-02  1.4882E-02  7.8819E-01  7.8983E-01
ac ID =   33377                -1.1503E+00 -5.9927E+00 -1.9739E-01  6.1053E+00
                               -2.8241E-01  2.9733E+01 -3.6888E+01  2.5147E+03

           1    2.22003E+01     2.6683E-02  2.1722E-02  7.7232E-01  7.7309E-01
ac ID =   33377                -1.0444E+00 -6.3843E+00 -3.6184E-01  6.4793E+00
                               -2.8533E-01  2.9887E+01 -3.6849E+01  2.5147E+03

           1    2.23003E+01     7.0007E-02 -2.0463E-02  7.2365E-01  7.2732E-01
ac ID =   33377                -3.6523E-01 -5.6311E+00 -1.4616E-01  5.6448E+00
                               -2.8818E-01  3.0040E+01 -3.6813E+01  2.5147E+03

           1    2.24003E+01     5.6973E-02  4.4445E-03  6.9822E-01  7.0056E-01
ac ID =   33377                -8.4246E-01 -5.7973E+00  2.7441E-02  5.8582E+00
                               -2.9116E-01  3.0195E+01 -3.6778E+01  2.5147E+03

           1    2.25002E+01     4.6905E-02  1.9942E-02  6.8163E-01  6.8353E-01
ac ID =   33377                -1.1660E+00 -5.9902E+00 -7.0866E-02  6.1030E+00
                               -2.9416E-01  3.0349E+01 -3.6745E+01  2.5147E+03

           1    2.26002E+01     6.0321E-02 -7.0015E-03  6.6163E-01  6.6441E-01
ac ID =   33377                -2.9110E-01 -6.1425E+00 -3.8615E-01  6.1615E+00
                               -2.9716E-01  3.0504E+01 -3.6713E+01  2.5147E+03

           1    2.27002E+01     8.8335E-02 -1.4596E-02  6.0042E-01  6.0706E-01
ac ID =   33377                -2.5098E-01 -5.8761E+00 -5.1539E-01  5.9040E+00
                               -3.0018E-01  3.0658E+01 -3.6683E+01  2.5147E+03

           1    2.28002E+01     5.2795E-02  2.4371E-02  5.7081E-01  5.7376E-01
ac ID =   33377                -1.0630E+00 -6.7068E+00 -1.5160E-01  6.7922E+00
                               -3.0329E-01  3.0813E+01 -3.6655E+01  2.5147E+03

           1    2.29002E+01     6.5754E-02  2.7235E-03  5.4863E-01  5.5256E-01
ac ID =   33377                -7.5552E-01 -6.6319E+00  2.2055E-01  6.6784E+00
                               -3.0638E-01  3.0968E+01 -3.6627E+01  2.5147E+03

           1    2.30002E+01     9.8398E-02 -1.1096E-02  4.9175E-01  5.0162E-01
ac ID =   33377                -2.0647E-01 -6.3707E+00  1.4513E-01  6.3757E+00
                               -3.0950E-01  3.1123E+01 -3.6602E+01  2.5147E+03

           1    2.31002E+01     6.3824E-02  1.6864E-02  4.6031E-01  4.6502E-01
ac ID =   33377                -1.1654E+00 -7.2147E+00 -2.9035E-01  7.3139E+00
                               -3.1267E-01  3.1278E+01 -3.6577E+01  2.5147E+03

           1    2.32002E+01     6.3713E-02  1.8765E-02  4.2012E-01  4.2534E-01
ac ID =   33377                -9.9213E-01 -7.6367E+00 -2.9930E-01  7.7067E+00
                               -3.1591E-01  3.1433E+01 -3.6553E+01  2.5147E+03

           1    2.33002E+01     8.3093E-02 -3.4455E-03  3.8833E-01  3.9714E-01
ac ID =   33377                -5.8925E-01 -7.6198E+00 -1.3589E-01  7.6438E+00
                               -3.1917E-01  3.1588E+01 -3.6531E+01  2.5147E+03

           1    2.34002E+01     9.4540E-02  1.7074E-03  3.5049E-01  3.6302E-01
ac ID =   33377                -6.3344E-01 -8.0066E+00 -6.1602E-03  8.0316E+00
                               -3.2245E-01  3.1744E+01 -3.6509E+01  2.5147E+03

           1    2.35001E+01     5.7718E-02  1.2115E-02  3.2577E-01  3.3107E-01
ac ID =   33377                -8.4111E-01 -8.6685E+00 -4.1554E-02  8.7093E+00
                               -3.2581E-01  3.1899E+01 -3.6488E+01  2.5147E+03

           1    2.36001E+01     6.8423E-02  6.5779E-03  2.7039E-01  2.7899E-01
ac ID =   33377                -5.9121E-01 -8.9596E+00 -2.9328E-01  8.9839E+00
                               -3.2922E-01  3.2054E+01 -3.6468E+01  2.5147E+03

           1    2.37001E+01     9.4741E-02 -6.5764E-03  2.3302E-01  2.5163E-01
ac ID =   33377                -4.1268E-01 -9.0540E+00 -2.4985E-01  9.0668E+00
                               -3.3261E-01  3.2209E+01 -3.6449E+01  2.5147E+03

           1    2.38001E+01     8.3115E-02  1.6251E-02  2.2208E-01  2.3768E-01
ac ID =   33377                -8.7761E-01 -9.5185E+00  2.3626E-02  9.5589E+00
                               -3.3607E-01  3.2364E+01 -3.6430E+01  2.5147E+03

           1    2.39001E+01     6.2274E-02  7.3350E-03  1.9198E-01  2.0196E-01
ac ID =   33377                -8.0067E-01 -1.0076E+01 -1.4908E-01  1.0109E+01
                               -3.3955E-01  3.2519E+01 -3.6412E+01  2.5147E+03

           1    2.40001E+01     9.1459E-02 -8.6814E-04  1.4074E-01  1.6785E-01
ac ID =   33377                -6.6655E-01 -1.0009E+01 -3.0402E-01  1.0036E+01
                               -3.4305E-01  3.2673E+01 -3.6394E+01  2.5147E+03

           1    2.41001E+01     9.0308E-02  1.0496E-02  1.1437E-01  1.4611E-01
ac ID =   33377                -1.0012E+00 -1.0449E+01 -3.0363E-01  1.0501E+01
                               -3.4660E-01  3.2828E+01 -3.6376E+01  2.5147E+03

           1    2.42001E+01     7.5024E-02  2.0115E-02  9.3606E-02  1.2164E-01
ac ID =   33377                -1.0301E+00 -1.1115E+01 -3.3874E-01  1.1168E+01
                               -3.5018E-01  3.2983E+01 -3.6359E+01  2.5147E+03

           1    2.43001E+01     8.9598E-02 -7.0932E-03  5.7479E-02  1.0669E-01
ac ID =   33377                -3.4523E-01 -1.0914E+01 -2.8793E-01  1.0923E+01
                               -3.5370E-01  3.3137E+01 -3.6341E+01  2.5147E+03

           1    2.44001E+01     9.9602E-02  6.7148E-03 -3.3016E-03  9.9882E-02
ac ID =   33377                -6.6956E-01 -1.0674E+01 -1.3006E-01  1.0696E+01
                               -3.5734E-01  3.3291E+01 -3.6324E+01  2.5147E+03

           1    2.45005E+01     8.9227E-02  1.4269E-02 -2.7583E-02  9.4477E-02
ac ID =   33377                -7.2426E-01 -1.1033E+01 -2.7261E-01  1.1060E+01
                               -3.6097E-01  3.3445E+01 -3.6307E+01  2.5147E+03

           1    2.46005E+01     1.0183E-01 -3.8395E-03 -5.9419E-02  1.1796E-01
ac ID =   33377                -4.1804E-01 -1.0984E+01 -4.0832E-01  1.1000E+01
                               -3.6455E-01  3.3599E+01 -3.6289E+01  2.5147E+03

           1    2.47005E+01     1.2636E-01 -1.2404E-02 -1.0485E-01  1.6466E-01
ac ID =   33377                 2.4346E-01 -1.0582E+01 -2.1068E-01  1.0587E+01
                               -3.6823E-01  3.3752E+01 -3.6272E+01  2.5147E+03

           1    2.48005E+01     1.1481E-01  2.6973E-03 -1.2304E-01  1.6831E-01
ac ID =   33377                -4.0755E-01 -1.1028E+01 -1.4785E-01  1.1037E+01
                               -3.7193E-01  3.3905E+01 -3.6254E+01  2.5147E+03

           1    2.49005E+01     1.1405E-01  1.3507E-02 -1.6086E-01  1.9765E-01
ac ID =   33377                -4.3781E-01 -1.1018E+01 -3.1856E-01  1.1032E+01
                               -3.7569E-01  3.4058E+01 -3.6235E+01  2.5147E+03

