 LSTC 50th% Full_FE H-III Dummy (Beta Version, February 17, 2019)        
                    ls-dyna smp s R16 R16.0_619_d222963 date 03/18/2025

{BEGIN LEGEND}
 Entity #        Title
    22626                                                                                     
{END LEGEND}




 n o d a l   p r i n t   o u t   f o r   t i m e  s t e p       1                              ( at time 0.0000000E+00 )

 nodal point  x-disp     y-disp      z-disp      x-vel       y-vel       z-vel      x-accl      y-accl      z-accl      x-coor      y-coor      z-coor
    22626  0.00000E+00 0.00000E+00 0.00000E+00 0.00000E+00 0.00000E+00-3.12000E+00 0.00000E+00 0.00000E+00 0.00000E+00 4.79642E+01-2.20298E+01 7.33850E+00



 n o d a l   p r i n t   o u t   f o r   t i m e  s t e p       1                              ( at time 0.0000000E+00 )

 nodal point  x-rot      y-rot       z-rot       x-rot vel   y-rot vel   z-rot vel   x-rot acc   y-rot acc   z-rot acc
    22626  0.00000E+00 0.00000E+00 0.00000E+00 0.00000E+00 0.00000E+00 0.00000E+00 0.00000E+00 0.00000E+00 0.00000E+00



 n o d a l   p r i n t   o u t   f o r   t i m e  s t e p     201                              ( at time 9.9989993E-02 )

 nodal point  x-disp     y-disp      z-disp      x-vel       y-vel       z-vel      x-accl      y-accl      z-accl      x-coor      y-coor      z-coor
    22626  8.33974E-07-4.04456E-06-3.12016E-01 4.76626E-05-4.96493E-04-3.12074E+00 4.76673E-04-4.96542E-03-7.42748E-03 4.79642E+01-2.20298E+01 7.02648E+00



 n o d a l   p r i n t   o u t   f o r   t i m e  s t e p     201                              ( at time 9.9989993E-02 )

 nodal point  x-rot      y-rot       z-rot       x-rot vel   y-rot vel   z-rot vel   x-rot acc   y-rot acc   z-rot acc
    22626  9.61436E-09 3.03929E-08 5.26884E-08 1.30687E-06 2.72186E-06 5.21212E-06 1.30700E-05 2.72213E-05 5.21264E-05



 n o d a l   p r i n t   o u t   f o r   t i m e  s t e p     401                              ( at time 1.9997999E-01 )

 nodal point  x-disp     y-disp      z-disp      x-vel       y-vel       z-vel      x-accl      y-accl      z-accl      x-coor      y-coor      z-coor
    22626 -5.12754E-05-5.21583E-04-6.23853E-01-1.09637E-03-1.11146E-02-3.11558E+00-1.14415E-02-1.06192E-01 5.16180E-02 4.79641E+01-2.20303E+01 6.71465E+00



 n o d a l   p r i n t   o u t   f o r   t i m e  s t e p     401                              ( at time 1.9997999E-01 )

 nodal point  x-rot      y-rot       z-rot       x-rot vel   y-rot vel   z-rot vel   x-rot acc   y-rot acc   z-rot acc
    22626  4.60527E-07 1.32990E-06 2.50245E-06 2.66212E-06 1.90530E-05 3.49631E-05 1.35539E-05 1.63328E-04 2.97540E-04



 n o d a l   p r i n t   o u t   f o r   t i m e  s t e p     601                              ( at time 2.9996998E-01 )

 nodal point  x-disp     y-disp      z-disp      x-vel       y-vel       z-vel      x-accl      y-accl      z-accl      x-coor      y-coor      z-coor
    22626 -2.45832E-05-1.97632E-03-9.35238E-01 1.66031E-03-1.60453E-02-3.11415E+00 2.75695E-02-4.93116E-02 1.43495E-02 4.79642E+01-2.20318E+01 6.40326E+00



 n o d a l   p r i n t   o u t   f o r   t i m e  s t e p     601                              ( at time 2.9996998E-01 )

 nodal point  x-rot      y-rot       z-rot       x-rot vel   y-rot vel   z-rot vel   x-rot acc   y-rot acc   z-rot acc
    22626  6.75052E-07 2.41117E-06 4.82775E-06 8.30609E-06 5.38167E-06 1.47318E-05 5.64453E-05-1.36727E-04-2.02334E-04



 n o d a l   p r i n t   o u t   f o r   t i m e  s t e p     801                              ( at time 3.9995997E-01 )

 nodal point  x-disp     y-disp      z-disp      x-vel       y-vel       z-vel      x-accl      y-accl      z-accl      x-coor      y-coor      z-coor
    22626  5.94763E-05-3.57403E-03-1.24663E+00 1.94176E-04-1.73908E-02-3.11353E+00-1.46628E-02-1.34572E-02 6.15181E-03 4.79642E+01-2.20334E+01 6.09187E+00



 n o d a l   p r i n t   o u t   f o r   t i m e  s t e p     801                              ( at time 3.9995997E-01 )

 nodal point  x-rot      y-rot       z-rot       x-rot vel   y-rot vel   z-rot vel   x-rot acc   y-rot acc   z-rot acc
    22626  1.58193E-06 3.68086E-06 6.68075E-06 6.23073E-06 2.42282E-05 3.81915E-05-2.07556E-05 1.88484E-04 2.34621E-04



 n o d a l   p r i n t   o u t   f o r   t i m e  s t e p    1001                              ( at time 4.9994997E-01 )

 nodal point  x-disp     y-disp      z-disp      x-vel       y-vel       z-vel      x-accl      y-accl      z-accl      x-coor      y-coor      z-coor
    22626  7.27269E-05-5.63145E-03-1.55782E+00 8.89119E-04-2.38458E-02-3.11085E+00 6.95012E-03-6.45561E-02 2.67842E-02 4.79643E+01-2.20354E+01 5.78068E+00



 n o d a l   p r i n t   o u t   f o r   t i m e  s t e p    1001                              ( at time 4.9994997E-01 )

 nodal point  x-rot      y-rot       z-rot       x-rot vel   y-rot vel   z-rot vel   x-rot acc   y-rot acc   z-rot acc
    22626  1.49515E-06 6.64773E-06 1.18366E-05-4.80927E-06 4.37664E-05 7.19187E-05-1.10411E-04 1.95402E-04 3.37306E-04



 n o d a l   p r i n t   o u t   f o r   t i m e  s t e p    1201                              ( at time 5.9993996E-01 )

 nodal point  x-disp     y-disp      z-disp      x-vel       y-vel       z-vel      x-accl      y-accl      z-accl      x-coor      y-coor      z-coor
    22626  5.29269E-05-8.13739E-03-1.86888E+00-5.60970E-04-2.61227E-02-3.11084E+00-1.45023E-02-2.27711E-02 1.33528E-04 4.79642E+01-2.20379E+01 5.46962E+00



 n o d a l   p r i n t   o u t   f o r   t i m e  s t e p    1201                              ( at time 5.9993996E-01 )

 nodal point  x-rot      y-rot       z-rot       x-rot vel   y-rot vel   z-rot vel   x-rot acc   y-rot acc   z-rot acc
    22626  1.26571E-06 9.87431E-06 1.77368E-05-2.12350E-06 2.64629E-05 5.31258E-05 2.68603E-05-1.73053E-04-1.87948E-04



 n o d a l   p r i n t   o u t   f o r   t i m e  s t e p    1401                              ( at time 6.9992995E-01 )

 nodal point  x-disp     y-disp      z-disp      x-vel       y-vel       z-vel      x-accl      y-accl      z-accl      x-coor      y-coor      z-coor
    22626  1.97020E-05-1.10207E-02-2.17976E+00 7.18720E-04-3.22407E-02-3.10770E+00 1.27982E-02-6.11866E-02 3.14362E-02 4.79642E+01-2.20408E+01 5.15874E+00



 n o d a l   p r i n t   o u t   f o r   t i m e  s t e p    1401                              ( at time 6.9992995E-01 )

 nodal point  x-rot      y-rot       z-rot       x-rot vel   y-rot vel   z-rot vel   x-rot acc   y-rot acc   z-rot acc
    22626  1.10254E-06 1.30691E-05 2.27047E-05-2.53851E-06 3.78609E-05 5.94184E-05-4.15050E-06 1.13992E-04 6.29316E-05



 n o d a l   p r i n t   o u t   f o r   t i m e  s t e p    1601                              ( at time 7.9991994E-01 )

 nodal point  x-disp     y-disp      z-disp      x-vel       y-vel       z-vel      x-accl      y-accl      z-accl      x-coor      y-coor      z-coor
    22626  1.33034E-04-1.45709E-02-2.49038E+00 1.37080E-03-3.68131E-02-3.10600E+00 6.52146E-03-4.57286E-02 1.69580E-02 4.79643E+01-2.20444E+01 4.84812E+00



 n o d a l   p r i n t   o u t   f o r   t i m e  s t e p    1601                              ( at time 7.9991994E-01 )

 nodal point  x-rot      y-rot       z-rot       x-rot vel   y-rot vel   z-rot vel   x-rot acc   y-rot acc   z-rot acc
    22626  1.00709E-06 1.72049E-05 2.96637E-05 3.00506E-06 4.88015E-05 7.64075E-05 5.54413E-05 1.09417E-04 1.69908E-04



 n o d a l   p r i n t   o u t   f o r   t i m e  s t e p    1801                              ( at time 8.9990994E-01 )

 nodal point  x-disp     y-disp      z-disp      x-vel       y-vel       z-vel      x-accl      y-accl      z-accl      x-coor      y-coor      z-coor
    22626  2.07392E-04-1.82140E-02-2.80104E+00-5.07115E-04-3.64354E-02-3.10742E+00-1.87810E-02 3.77738E-03-1.42016E-02 4.79644E+01-2.20480E+01 4.53746E+00



 n o d a l   p r i n t   o u t   f o r   t i m e  s t e p    1801                              ( at time 8.9990994E-01 )

 nodal point  x-rot      y-rot       z-rot       x-rot vel   y-rot vel   z-rot vel   x-rot acc   y-rot acc   z-rot acc
    22626  1.02375E-06 2.13190E-05 3.66565E-05-1.91244E-06 3.79707E-05 6.83317E-05-4.91799E-05-1.08319E-04-8.07660E-05



 n o d a l   p r i n t   o u t   f o r   t i m e  s t e p    2001                              ( at time 9.9989993E-01 )

 nodal point  x-disp     y-disp      z-disp      x-vel       y-vel       z-vel      x-accl      y-accl      z-accl      x-coor      y-coor      z-coor
    22626  1.09805E-04-2.19276E-02-3.11175E+00-8.18719E-04-3.84002E-02-3.10755E+00-3.11635E-03-1.96495E-02-1.30190E-03 4.79643E+01-2.20517E+01 4.22675E+00



 n o d a l   p r i n t   o u t   f o r   t i m e  s t e p    2001                              ( at time 9.9989993E-01 )

 nodal point  x-rot      y-rot       z-rot       x-rot vel   y-rot vel   z-rot vel   x-rot acc   y-rot acc   z-rot acc
    22626  8.56665E-07 2.55324E-05 4.38508E-05-8.89917E-07 4.61442E-05 8.59369E-05 1.02262E-05 8.17428E-05 1.76070E-04



 n o d a l   p r i n t   o u t   f o r   t i m e  s t e p    2201                              ( at time 1.0998899E+00 )

 nodal point  x-disp     y-disp      z-disp      x-vel       y-vel       z-vel      x-accl      y-accl      z-accl      x-coor      y-coor      z-coor
    22626  9.18485E-05-2.58760E-02-3.42246E+00-2.21203E-04-4.02606E-02-3.10712E+00 5.97575E-03-1.86059E-02 4.32058E-03 4.79643E+01-2.20557E+01 3.91605E+00



 n o d a l   p r i n t   o u t   f o r   t i m e  s t e p    2201                              ( at time 1.0998899E+00 )

 nodal point  x-rot      y-rot       z-rot       x-rot vel   y-rot vel   z-rot vel   x-rot acc   y-rot acc   z-rot acc
    22626  9.33810E-07 3.03101E-05 5.24785E-05 5.31690E-06 4.64643E-05 7.50017E-05 6.20744E-05 3.20145E-06-1.09363E-04



 n o d a l   p r i n t   o u t   f o r   t i m e  s t e p    2401                              ( at time 1.1998799E+00 )

 nodal point  x-disp     y-disp      z-disp      x-vel       y-vel       z-vel      x-accl      y-accl      z-accl      x-coor      y-coor      z-coor
    22626  1.34303E-04-2.98901E-02-3.73320E+00 7.33742E-04-3.98047E-02-3.10849E+00 9.55040E-03 4.55935E-03-1.37510E-02 4.79643E+01-2.20597E+01 3.60531E+00



 n o d a l   p r i n t   o u t   f o r   t i m e  s t e p    2401                              ( at time 1.1998799E+00 )

 nodal point  x-rot      y-rot       z-rot       x-rot vel   y-rot vel   z-rot vel   x-rot acc   y-rot acc   z-rot acc
    22626  1.33723E-06 3.44634E-05 5.93286E-05 5.03488E-06 3.98691E-05 6.54966E-05-2.82057E-06-6.59582E-05-9.50600E-05



 n o d a l   p r i n t   o u t   f o r   t i m e  s t e p    2601                              ( at time 1.2998699E+00 )

 nodal point  x-disp     y-disp      z-disp      x-vel       y-vel       z-vel      x-accl      y-accl      z-accl      x-coor      y-coor      z-coor
    22626  1.46205E-04-3.37303E-02-4.04413E+00-4.23395E-04-3.65892E-02-3.11132E+00-1.15725E-02 3.21579E-02-2.82840E-02 4.79643E+01-2.20635E+01 3.29437E+00



 n o d a l   p r i n t   o u t   f o r   t i m e  s t e p    2601                              ( at time 1.2998699E+00 )

 nodal point  x-rot      y-rot       z-rot       x-rot vel   y-rot vel   z-rot vel   x-rot acc   y-rot acc   z-rot acc
    22626  1.63938E-06 3.85418E-05 6.61340E-05-2.52059E-06 4.53798E-05 7.97616E-05-7.55622E-05 5.51119E-05 1.42664E-04



 n o d a l   p r i n t   o u t   f o r   t i m e  s t e p    2801                              ( at time 1.3998599E+00 )

 nodal point  x-disp     y-disp      z-disp      x-vel       y-vel       z-vel      x-accl      y-accl      z-accl      x-coor      y-coor      z-coor
    22626  3.22413E-05-3.71240E-02-4.35543E+00-1.31094E-03-3.14375E-02-3.11511E+00-8.87634E-03 5.15223E-02-3.78718E-02 4.79642E+01-2.20669E+01 2.98307E+00



 n o d a l   p r i n t   o u t   f o r   t i m e  s t e p    2801                              ( at time 1.3998599E+00 )

 nodal point  x-rot      y-rot       z-rot       x-rot vel   y-rot vel   z-rot vel   x-rot acc   y-rot acc   z-rot acc
    22626  1.20494E-06 4.29470E-05 7.39890E-05-4.51750E-06 4.45353E-05 7.33898E-05-1.99711E-05-8.44565E-06-6.37245E-05



 n o d a l   p r i n t   o u t   f o r   t i m e  s t e p    3001                              ( at time 1.4998499E+00 )

 nodal point  x-disp     y-disp      z-disp      x-vel       y-vel       z-vel      x-accl      y-accl      z-accl      x-coor      y-coor      z-coor
    22626 -7.75858E-05-4.01686E-02-4.66702E+00-4.94651E-04-2.97670E-02-3.11713E+00 8.16371E-03 1.67071E-02-2.02175E-02 4.79641E+01-2.20700E+01 2.67148E+00



 n o d a l   p r i n t   o u t   f o r   t i m e  s t e p    3001                              ( at time 1.4998499E+00 )

 nodal point  x-rot      y-rot       z-rot       x-rot vel   y-rot vel   z-rot vel   x-rot acc   y-rot acc   z-rot acc
    22626  8.27753E-07 4.68495E-05 8.05202E-05-1.55842E-06 3.18792E-05 5.70666E-05 2.95937E-05-1.26574E-04-1.63248E-04



 n o d a l   p r i n t   o u t   f o r   t i m e  s t e p    3201                              ( at time 1.5998399E+00 )

 nodal point  x-disp     y-disp      z-disp      x-vel       y-vel       z-vel      x-accl      y-accl      z-accl      x-coor      y-coor      z-coor
    22626 -1.24340E-04-4.30591E-02-4.97879E+00-6.95395E-04-2.75096E-02-3.11940E+00-2.00764E-03 2.25756E-02-2.26735E-02 4.79641E+01-2.20728E+01 2.35971E+00



 n o d a l   p r i n t   o u t   f o r   t i m e  s t e p    3201                              ( at time 1.5998399E+00 )

 nodal point  x-rot      y-rot       z-rot       x-rot vel   y-rot vel   z-rot vel   x-rot acc   y-rot acc   z-rot acc
    22626  5.15915E-07 4.99080E-05 8.53941E-05-1.59073E-06 3.26302E-05 4.79673E-05-3.23064E-07 7.51125E-06-9.10025E-05



 n o d a l   p r i n t   o u t   f o r   t i m e  s t e p    3401                              ( at time 1.6998299E+00 )

 nodal point  x-disp     y-disp      z-disp      x-vel       y-vel       z-vel      x-accl      y-accl      z-accl      x-coor      y-coor      z-coor
    22626 -2.10893E-04-4.55735E-02-5.29088E+00-1.12381E-03-2.24368E-02-3.12325E+00-4.28454E-03 5.07333E-02-3.85657E-02 4.79640E+01-2.20754E+01 2.04762E+00



 n o d a l   p r i n t   o u t   f o r   t i m e  s t e p    3401                              ( at time 1.6998299E+00 )

 nodal point  x-rot      y-rot       z-rot       x-rot vel   y-rot vel   z-rot vel   x-rot acc   y-rot acc   z-rot acc
    22626  3.01957E-07 5.29915E-05 9.04309E-05-3.78066E-06 2.98553E-05 4.78488E-05-2.19015E-05-2.77517E-05-1.18501E-06



 n o d a l   p r i n t   o u t   f o r   t i m e  s t e p    3601                              ( at time 1.7998199E+00 )

 nodal point  x-disp     y-disp      z-disp      x-vel       y-vel       z-vel      x-accl      y-accl      z-accl      x-coor      y-coor      z-coor
    22626 -3.12469E-04-4.75642E-02-5.60339E+00-1.32697E-03-1.77147E-02-3.12732E+00-2.03183E-03 4.72264E-02-4.06592E-02 4.79639E+01-2.20774E+01 1.73511E+00



 n o d a l   p r i n t   o u t   f o r   t i m e  s t e p    3601                              ( at time 1.7998199E+00 )

 nodal point  x-rot      y-rot       z-rot       x-rot vel   y-rot vel   z-rot vel   x-rot acc   y-rot acc   z-rot acc
    22626  1.54801E-07 5.57806E-05 9.51893E-05-4.12431E-07 2.14315E-05 4.22506E-05 3.36857E-05-8.42467E-05-5.59878E-05



 n o d a l   p r i n t   o u t   f o r   t i m e  s t e p    3801                              ( at time 1.8998099E+00 )

 nodal point  x-disp     y-disp      z-disp      x-vel       y-vel       z-vel      x-accl      y-accl      z-accl      x-coor      y-coor      z-coor
    22626 -4.99997E-04-4.92018E-02-5.91621E+00-2.16355E-03-1.51671E-02-3.12982E+00-8.36664E-03 2.54783E-02-2.49840E-02 4.79637E+01-2.20790E+01 1.42229E+00



 n o d a l   p r i n t   o u t   f o r   t i m e  s t e p    3801                              ( at time 1.8998099E+00 )

 nodal point  x-rot      y-rot       z-rot       x-rot vel   y-rot vel   z-rot vel   x-rot acc   y-rot acc   z-rot acc
    22626 -8.94002E-08 5.76772E-05 9.86046E-05 1.66598E-06 1.54398E-05 2.74629E-05 2.07862E-05-5.99236E-05-1.47891E-04



 n o d a l   p r i n t   o u t   f o r   t i m e  s t e p    4001                              ( at time 1.9997999E+00 )

 nodal point  x-disp     y-disp      z-disp      x-vel       y-vel       z-vel      x-accl      y-accl      z-accl      x-coor      y-coor      z-coor
    22626 -6.73360E-04-5.05921E-02-6.22929E+00-1.64614E-03-1.28118E-02-3.13210E+00 5.17462E-03 2.35555E-02-2.28595E-02 4.79635E+01-2.20804E+01 1.10922E+00



 n o d a l   p r i n t   o u t   f o r   t i m e  s t e p    4001                              ( at time 1.9997999E+00 )

 nodal point  x-rot      y-rot       z-rot       x-rot vel   y-rot vel   z-rot vel   x-rot acc   y-rot acc   z-rot acc
    22626  1.17142E-07 5.90134E-05 1.00917E-04 3.41344E-06 1.32367E-05 2.02055E-05 1.74763E-05-2.20331E-05-7.25817E-05



 n o d a l   p r i n t   o u t   f o r   t i m e  s t e p    4201                              ( at time 2.0997899E+00 )

 nodal point  x-disp     y-disp      z-disp      x-vel       y-vel       z-vel      x-accl      y-accl      z-accl      x-coor      y-coor      z-coor
    22626 -8.42470E-04-5.16833E-02-6.54262E+00-1.86152E-03-9.15340E-03-3.13518E+00-2.15408E-03 3.65874E-02-3.07448E-02 4.79633E+01-2.20815E+01 7.95877E-01



 n o d a l   p r i n t   o u t   f o r   t i m e  s t e p    4201                              ( at time 2.0997899E+00 )

 nodal point  x-rot      y-rot       z-rot       x-rot vel   y-rot vel   z-rot vel   x-rot acc   y-rot acc   z-rot acc
    22626  4.03596E-07 5.96574E-05 1.02008E-04-1.42312E-06 3.30729E-06 1.44440E-06-4.83705E-05-9.93039E-05-1.87630E-04



 n o d a l   p r i n t   o u t   f o r   t i m e  s t e p    4401                              ( at time 2.1997798E+00 )

 nodal point  x-disp     y-disp      z-disp      x-vel       y-vel       z-vel      x-accl      y-accl      z-accl      x-coor      y-coor      z-coor
    22626 -1.08452E-03-5.23698E-02-6.85629E+00-2.77410E-03-4.40962E-03-3.13894E+00-9.12666E-03 4.74426E-02-3.76668E-02 4.79631E+01-2.20822E+01 4.82213E-01



 n o d a l   p r i n t   o u t   f o r   t i m e  s t e p    4401                              ( at time 2.1997798E+00 )

 nodal point  x-rot      y-rot       z-rot       x-rot vel   y-rot vel   z-rot vel   x-rot acc   y-rot acc   z-rot acc
    22626  2.25628E-07 5.96484E-05 1.01939E-04-1.18560E-06-2.04750E-06-2.96611E-06 2.37547E-06-5.35533E-05-4.41095E-05



 n o d a l   p r i n t   o u t   f o r   t i m e  s t e p    4601                              ( at time 2.2997698E+00 )

 nodal point  x-disp     y-disp      z-disp      x-vel       y-vel       z-vel      x-accl      y-accl      z-accl      x-coor      y-coor      z-coor
    22626 -1.39336E-03-5.25651E-02-7.17034E+00-3.50908E-03-9.07162E-05-3.14228E+00-7.35051E-03 4.31933E-02-3.33318E-02 4.79628E+01-2.20824E+01 1.68163E-01



 n o d a l   p r i n t   o u t   f o r   t i m e  s t e p    4601                              ( at time 2.2997698E+00 )

 nodal point  x-rot      y-rot       z-rot       x-rot vel   y-rot vel   z-rot vel   x-rot acc   y-rot acc   z-rot acc
    22626 -1.61892E-07 5.93348E-05 1.01568E-04-4.60839E-06-9.81190E-06-1.28277E-05-3.42312E-05-7.76516E-05-9.86259E-05



 n o d a l   p r i n t   o u t   f o r   t i m e  s t e p    4801                              ( at time 2.3997598E+00 )

 nodal point  x-disp     y-disp      z-disp      x-vel       y-vel       z-vel      x-accl      y-accl      z-accl      x-coor      y-coor      z-coor
    22626 -1.76197E-03-5.24781E-02-7.48464E+00-3.61248E-03 1.86653E-03-3.14440E+00-1.03415E-03 1.95744E-02-2.12596E-02 4.79624E+01-2.20823E+01-1.46134E-01



 n o d a l   p r i n t   o u t   f o r   t i m e  s t e p    4801                              ( at time 2.3997598E+00 )

 nodal point  x-rot      y-rot       z-rot       x-rot vel   y-rot vel   z-rot vel   x-rot acc   y-rot acc   z-rot acc
    22626 -7.09388E-07 5.80712E-05 9.90844E-05-6.01566E-06-1.61610E-05-3.38056E-05-1.40741E-05-6.34973E-05-2.09800E-04



 n o d a l   p r i n t   o u t   f o r   t i m e  s t e p    5001                              ( at time 2.4997498E+00 )

 nodal point  x-disp     y-disp      z-disp      x-vel       y-vel       z-vel      x-accl      y-accl      z-accl      x-coor      y-coor      z-coor
    22626 -2.15522E-03-5.21707E-02-7.79916E+00-4.24105E-03 4.96739E-03-3.14711E+00-6.28634E-03 3.10117E-02-2.70393E-02 4.79620E+01-2.20820E+01-4.60661E-01



 n o d a l   p r i n t   o u t   f o r   t i m e  s t e p    5001                              ( at time 2.4997498E+00 )

 nodal point  x-rot      y-rot       z-rot       x-rot vel   y-rot vel   z-rot vel   x-rot acc   y-rot acc   z-rot acc
    22626 -1.15781E-06 5.58367E-05 9.51165E-05-4.05227E-06-2.63003E-05-4.84906E-05 1.96358E-05-1.01404E-04-1.46864E-04



 n o d a l   p r i n t   o u t   f o r   t i m e  s t e p    5201                              ( at time 2.5997398E+00 )

 nodal point  x-disp     y-disp      z-disp      x-vel       y-vel       z-vel      x-accl      y-accl      z-accl      x-coor      y-coor      z-coor
    22626 -2.62943E-03-5.14565E-02-8.11403E+00-5.25875E-03 9.27043E-03-3.15070E+00-1.01781E-02 4.30347E-02-3.59524E-02 4.79616E+01-2.20812E+01-7.75526E-01



 n o d a l   p r i n t   o u t   f o r   t i m e  s t e p    5201                              ( at time 2.5997398E+00 )

 nodal point  x-rot      y-rot       z-rot       x-rot vel   y-rot vel   z-rot vel   x-rot acc   y-rot acc   z-rot acc
    22626 -1.52794E-06 5.27305E-05 8.96771E-05-4.75812E-06-3.58605E-05-6.23202E-05-7.05919E-06-9.56110E-05-1.38310E-04



 n o d a l   p r i n t   o u t   f o r   t i m e  s t e p    5401                              ( at time 2.6997298E+00 )

 nodal point  x-disp     y-disp      z-disp      x-vel       y-vel       z-vel      x-accl      y-accl      z-accl      x-coor      y-coor      z-coor
    22626 -3.19912E-03-5.03219E-02-8.42924E+00-6.42461E-03 1.29784E-02-3.15422E+00-1.16597E-02 3.70830E-02-3.51607E-02 4.79610E+01-2.20801E+01-1.09074E+00



 n o d a l   p r i n t   o u t   f o r   t i m e  s t e p    5401                              ( at time 2.6997298E+00 )

 nodal point  x-rot      y-rot       z-rot       x-rot vel   y-rot vel   z-rot vel   x-rot acc   y-rot acc   z-rot acc
    22626 -1.82520E-06 4.89816E-05 8.31740E-05-1.74965E-06-4.14405E-05-6.68500E-05 3.00877E-05-5.58060E-05-4.53016E-05



 n o d a l   p r i n t   o u t   f o r   t i m e  s t e p    5601                              ( at time 2.7997198E+00 )

 nodal point  x-disp     y-disp      z-disp      x-vel       y-vel       z-vel      x-accl      y-accl      z-accl      x-coor      y-coor      z-coor
    22626 -3.91299E-03-4.88974E-02-8.74475E+00-7.68641E-03 1.51510E-02-3.15635E+00-1.26193E-02 2.17288E-02-2.12905E-02 4.79603E+01-2.20787E+01-1.40625E+00



 n o d a l   p r i n t   o u t   f o r   t i m e  s t e p    5601                              ( at time 2.7997198E+00 )

 nodal point  x-rot      y-rot       z-rot       x-rot vel   y-rot vel   z-rot vel   x-rot acc   y-rot acc   z-rot acc
    22626 -1.95909E-06 4.40856E-05 7.50653E-05 2.91585E-07-5.73247E-05-9.86215E-05 2.04144E-05-1.58858E-04-3.17748E-04



 n o d a l   p r i n t   o u t   f o r   t i m e  s t e p    5801                              ( at time 2.8997098E+00 )

 nodal point  x-disp     y-disp      z-disp      x-vel       y-vel       z-vel      x-accl      y-accl      z-accl      x-coor      y-coor      z-coor
    22626 -4.68487E-03-4.73291E-02-9.06044E+00-7.81999E-03 1.61397E-02-3.15804E+00-1.33599E-03 9.88793E-03-1.69390E-02 4.79595E+01-2.20771E+01-1.72194E+00



 n o d a l   p r i n t   o u t   f o r   t i m e  s t e p    5801                              ( at time 2.8997098E+00 )

 nodal point  x-rot      y-rot       z-rot       x-rot vel   y-rot vel   z-rot vel   x-rot acc   y-rot acc   z-rot acc
    22626 -1.75931E-06 3.76427E-05 6.41565E-05 2.40364E-06-6.66168E-05-1.15510E-04 2.11226E-05-9.29296E-05-1.68906E-04



 n o d a l   p r i n t   o u t   f o r   t i m e  s t e p    6001                              ( at time 2.9996998E+00 )

 nodal point  x-disp     y-disp      z-disp      x-vel       y-vel       z-vel      x-accl      y-accl      z-accl      x-coor      y-coor      z-coor
    22626 -5.50517E-03-4.55974E-02-9.37632E+00-8.82960E-03 1.86330E-02-3.16041E+00-1.00971E-02 2.49348E-02-2.37321E-02 4.79587E+01-2.20754E+01-2.03782E+00



 n o d a l   p r i n t   o u t   f o r   t i m e  s t e p    6001                              ( at time 2.9996998E+00 )

 nodal point  x-rot      y-rot       z-rot       x-rot vel   y-rot vel   z-rot vel   x-rot acc   y-rot acc   z-rot acc
    22626 -1.52685E-06 3.07814E-05 5.25929E-05 6.40788E-07-7.09458E-05-1.20915E-04-1.76302E-05-4.32943E-05-5.40546E-05



 n o d a l   p r i n t   o u t   f o r   t i m e  s t e p    6201                              ( at time 3.0996898E+00 )

 nodal point  x-disp     y-disp      z-disp      x-vel       y-vel       z-vel      x-accl      y-accl      z-accl      x-coor      y-coor      z-coor
    22626 -6.47053E-03-4.36163E-02-9.69245E+00-1.04098E-02 2.05625E-02-3.16240E+00-1.58033E-02 1.92971E-02-1.98980E-02 4.79577E+01-2.20734E+01-2.35395E+00



 n o d a l   p r i n t   o u t   f o r   t i m e  s t e p    6201                              ( at time 3.0996898E+00 )

 nodal point  x-rot      y-rot       z-rot       x-rot vel   y-rot vel   z-rot vel   x-rot acc   y-rot acc   z-rot acc
    22626 -1.57235E-06 2.34222E-05 3.99612E-05-1.91674E-06-7.57482E-05-1.33461E-04-2.55778E-05-4.80291E-05-1.25469E-04



 n o d a l   p r i n t   o u t   f o r   t i m e  s t e p    6401                              ( at time 3.1996798E+00 )

 nodal point  x-disp     y-disp      z-disp      x-vel       y-vel       z-vel      x-accl      y-accl      z-accl      x-coor      y-coor      z-coor
    22626 -7.54181E-03-4.15858E-02-1.00087E+01-1.09372E-02 1.97576E-02-3.16298E+00-5.27493E-03-8.04990E-03-5.74407E-03 4.79566E+01-2.20714E+01-2.67020E+00



 n o d a l   p r i n t   o u t   f o r   t i m e  s t e p    6401                              ( at time 3.1996798E+00 )

 nodal point  x-rot      y-rot       z-rot       x-rot vel   y-rot vel   z-rot vel   x-rot acc   y-rot acc   z-rot acc
    22626 -1.70452E-06 1.53459E-05 2.63629E-05-1.49995E-06-8.52444E-05-1.43850E-04 4.16832E-06-9.49716E-05-1.03896E-04



 n o d a l   p r i n t   o u t   f o r   t i m e  s t e p    6601                              ( at time 3.2996698E+00 )

 nodal point  x-disp     y-disp      z-disp      x-vel       y-vel       z-vel      x-accl      y-accl      z-accl      x-coor      y-coor      z-coor
    22626 -8.64762E-03-3.97063E-02-1.03249E+01-1.11925E-02 1.78237E-02-3.16270E+00-2.55295E-03-1.93408E-02 2.78263E-03 4.79555E+01-2.20695E+01-2.98645E+00



 n o d a l   p r i n t   o u t   f o r   t i m e  s t e p    6601                              ( at time 3.2996698E+00 )

 nodal point  x-rot      y-rot       z-rot       x-rot vel   y-rot vel   z-rot vel   x-rot acc   y-rot acc   z-rot acc
    22626 -1.97105E-06 6.65136E-06 1.16018E-05-2.47079E-06-8.94411E-05-1.51540E-04-9.70945E-06-4.19709E-05-7.69139E-05



 n o d a l   p r i n t   o u t   f o r   t i m e  s t e p    6801                              ( at time 3.3996598E+00 )

 nodal point  x-disp     y-disp      z-disp      x-vel       y-vel       z-vel      x-accl      y-accl      z-accl      x-coor      y-coor      z-coor
    22626 -9.79820E-03-3.80152E-02-1.06412E+01-1.16985E-02 1.60341E-02-3.16262E+00-5.06062E-03-1.78979E-02 8.08319E-04 4.79544E+01-2.20678E+01-3.30268E+00



 n o d a l   p r i n t   o u t   f o r   t i m e  s t e p    6801                              ( at time 3.3996598E+00 )

 nodal point  x-rot      y-rot       z-rot       x-rot vel   y-rot vel   z-rot vel   x-rot acc   y-rot acc   z-rot acc
    22626 -2.01911E-06-2.24104E-06-3.69704E-06-2.59296E-06-8.80927E-05-1.53052E-04-1.22183E-06 1.34847E-05-1.51241E-05



 n o d a l   p r i n t   o u t   f o r   t i m e  s t e p    7001                              ( at time 3.4996498E+00 )

 nodal point  x-disp     y-disp      z-disp      x-vel       y-vel       z-vel      x-accl      y-accl      z-accl      x-coor      y-coor      z-coor
    22626 -1.09961E-02-3.64856E-02-1.09574E+01-1.23271E-02 1.44971E-02-3.16282E+00-6.28683E-03-1.53712E-02-1.98623E-03 4.79532E+01-2.20663E+01-3.61892E+00



 n o d a l   p r i n t   o u t   f o r   t i m e  s t e p    7001                              ( at time 3.4996498E+00 )

 nodal point  x-rot      y-rot       z-rot       x-rot vel   y-rot vel   z-rot vel   x-rot acc   y-rot acc   z-rot acc
    22626 -2.01343E-06-1.09057E-05-1.85311E-05 6.19119E-07-8.71956E-05-1.47459E-04 3.21241E-05 8.97238E-06 5.59388E-05



 n o d a l   p r i n t   o u t   f o r   t i m e  s t e p    7201                              ( at time 3.5996397E+00 )

 nodal point  x-disp     y-disp      z-disp      x-vel       y-vel       z-vel      x-accl      y-accl      z-accl      x-coor      y-coor      z-coor
    22626 -1.22507E-02-3.51429E-02-1.12737E+01-1.24102E-02 1.20881E-02-3.16260E+00-8.31355E-04-2.40923E-02 2.12691E-03 4.79519E+01-2.20649E+01-3.93517E+00



 n o d a l   p r i n t   o u t   f o r   t i m e  s t e p    7201                              ( at time 3.5996397E+00 )

 nodal point  x-rot      y-rot       z-rot       x-rot vel   y-rot vel   z-rot vel   x-rot acc   y-rot acc   z-rot acc
    22626 -2.02187E-06-1.95335E-05-3.30160E-05 2.08855E-06-8.48330E-05-1.38730E-04 1.46958E-05 2.36283E-05 8.73013E-05



 n o d a l   p r i n t   o u t   f o r   t i m e  s t e p    7401                              ( at time 3.6996297E+00 )

 nodal point  x-disp     y-disp      z-disp      x-vel       y-vel       z-vel      x-accl      y-accl      z-accl      x-coor      y-coor      z-coor
    22626 -1.34806E-02-3.40993E-02-1.15899E+01-1.21425E-02 8.69953E-03-3.16159E+00 2.67776E-03-3.38892E-02 1.01505E-02 4.79507E+01-2.20639E+01-4.25135E+00



 n o d a l   p r i n t   o u t   f o r   t i m e  s t e p    7401                              ( at time 3.6996297E+00 )

 nodal point  x-rot      y-rot       z-rot       x-rot vel   y-rot vel   z-rot vel   x-rot acc   y-rot acc   z-rot acc
    22626 -1.76914E-06-2.78223E-05-4.68151E-05 3.61082E-06-8.11751E-05-1.36397E-04 1.52242E-05 3.65824E-05 2.33258E-05



 n o d a l   p r i n t   o u t   f o r   t i m e  s t e p    7601                              ( at time 3.7996197E+00 )

 nodal point  x-disp     y-disp      z-disp      x-vel       y-vel       z-vel      x-accl      y-accl      z-accl      x-coor      y-coor      z-coor
    22626 -1.46658E-02-3.33668E-02-1.19059E+01-1.15874E-02 6.00367E-03-3.16088E+00 5.55174E-03-2.69613E-02 7.07698E-03 4.79495E+01-2.20632E+01-4.56744E+00



 n o d a l   p r i n t   o u t   f o r   t i m e  s t e p    7601                              ( at time 3.7996197E+00 )

 nodal point  x-rot      y-rot       z-rot       x-rot vel   y-rot vel   z-rot vel   x-rot acc   y-rot acc   z-rot acc
    22626 -1.30442E-06-3.56392E-05-6.00850E-05 5.28878E-06-7.24763E-05-1.22173E-04 1.67813E-05 8.69974E-05 1.42256E-04



 n o d a l   p r i n t   o u t   f o r   t i m e  s t e p    7801                              ( at time 3.8996097E+00 )

 nodal point  x-disp     y-disp      z-disp      x-vel       y-vel       z-vel      x-accl      y-accl      z-accl      x-coor      y-coor      z-coor
    22626 -1.57931E-02-3.28659E-02-1.22220E+01-1.09366E-02 4.22078E-03-3.16081E+00 6.50850E-03-1.78307E-02 7.05789E-04 4.79484E+01-2.20627E+01-4.88349E+00



 n o d a l   p r i n t   o u t   f o r   t i m e  s t e p    7801                              ( at time 3.8996097E+00 )

 nodal point  x-rot      y-rot       z-rot       x-rot vel   y-rot vel   z-rot vel   x-rot acc   y-rot acc   z-rot acc
    22626 -9.45098E-07-4.22439E-05-7.12083E-05 6.50995E-07-5.77189E-05-9.61817E-05-4.63824E-05 1.47588E-04 2.59943E-04



 n o d a l   p r i n t   o u t   f o r   t i m e  s t e p    8001                              ( at time 3.9995997E+00 )

 nodal point  x-disp     y-disp      z-disp      x-vel       y-vel       z-vel      x-accl      y-accl      z-accl      x-coor      y-coor      z-coor
    22626 -1.68607E-02-3.24956E-02-1.25381E+01-1.03920E-02 3.13946E-03-3.16113E+00 5.44664E-03-1.08143E-02-3.24997E-03 4.79473E+01-2.20623E+01-5.19956E+00



 n o d a l   p r i n t   o u t   f o r   t i m e  s t e p    8001                              ( at time 3.9995997E+00 )

 nodal point  x-rot      y-rot       z-rot       x-rot vel   y-rot vel   z-rot vel   x-rot acc   y-rot acc   z-rot acc
    22626 -8.13038E-07-4.74954E-05-7.98970E-05-1.77172E-07-4.67114E-05-7.99663E-05-8.28251E-06 1.10086E-04 1.62170E-04



 n o d a l   p r i n t   o u t   f o r   t i m e  s t e p    8201                              ( at time 4.0995897E+00 )

 nodal point  x-disp     y-disp      z-disp      x-vel       y-vel       z-vel      x-accl      y-accl      z-accl      x-coor      y-coor      z-coor
    22626 -1.78172E-02-3.22963E-02-1.28541E+01-8.60556E-03 6.38542E-04-3.16064E+00 1.78660E-02-2.50117E-02 4.99298E-03 4.79464E+01-2.20621E+01-5.51561E+00



 n o d a l   p r i n t   o u t   f o r   t i m e  s t e p    8201                              ( at time 4.0995897E+00 )

 nodal point  x-rot      y-rot       z-rot       x-rot vel   y-rot vel   z-rot vel   x-rot acc   y-rot acc   z-rot acc
    22626 -8.24114E-07-5.16238E-05-8.68712E-05-2.28341E-07-3.22548E-05-5.66219E-05-5.11738E-07 1.44580E-04 2.33466E-04



 n o d a l   p r i n t   o u t   f o r   t i m e  s t e p    8401                              ( at time 4.1995797E+00 )

 nodal point  x-disp     y-disp      z-disp      x-vel       y-vel       z-vel      x-accl      y-accl      z-accl      x-coor      y-coor      z-coor
    22626 -1.85985E-02-3.23587E-02-1.31701E+01-6.97097E-03-1.79025E-03-3.16005E+00 1.63476E-02-2.42904E-02 5.88953E-03 4.79456E+01-2.20621E+01-5.83161E+00



 n o d a l   p r i n t   o u t   f o r   t i m e  s t e p    8401                              ( at time 4.1995797E+00 )

 nodal point  x-rot      y-rot       z-rot       x-rot vel   y-rot vel   z-rot vel   x-rot acc   y-rot acc   z-rot acc
    22626 -8.08018E-07-5.40068E-05-9.08296E-05-2.57817E-07-1.41821E-05-2.29915E-05-2.94786E-07 1.80745E-04 3.36339E-04



 n o d a l   p r i n t   o u t   f o r   t i m e  s t e p    8601                              ( at time 4.2995697E+00 )

 nodal point  x-disp     y-disp      z-disp      x-vel       y-vel       z-vel      x-accl      y-accl      z-accl      x-coor      y-coor      z-coor
    22626 -1.92318E-02-3.26575E-02-1.34861E+01-5.55328E-03-3.88384E-03-3.15987E+00 1.41782E-02-2.09380E-02 1.74540E-03 4.79449E+01-2.20624E+01-6.14757E+00



 n o d a l   p r i n t   o u t   f o r   t i m e  s t e p    8601                              ( at time 4.2995697E+00 )

 nodal point  x-rot      y-rot       z-rot       x-rot vel   y-rot vel   z-rot vel   x-rot acc   y-rot acc   z-rot acc
    22626 -8.32136E-07-5.44478E-05-9.16870E-05-3.09012E-07 2.81884E-06 4.60620E-06-5.11999E-07 1.70027E-04 2.76004E-04



 n o d a l   p r i n t   o u t   f o r   t i m e  s t e p    8801                              ( at time 4.3995597E+00 )

 nodal point  x-disp     y-disp      z-disp      x-vel       y-vel       z-vel      x-accl      y-accl      z-accl      x-coor      y-coor      z-coor
    22626 -1.96980E-02-3.30862E-02-1.38021E+01-3.80446E-03-4.73674E-03-3.16047E+00 1.74900E-02-8.52981E-03-6.01829E-03 4.79445E+01-2.20629E+01-6.46355E+00



 n o d a l   p r i n t   o u t   f o r   t i m e  s t e p    8801                              ( at time 4.3995597E+00 )

 nodal point  x-rot      y-rot       z-rot       x-rot vel   y-rot vel   z-rot vel   x-rot acc   y-rot acc   z-rot acc
    22626 -8.07522E-07-5.31709E-05-8.93674E-05 6.86428E-07 2.21683E-05 3.99974E-05 9.95540E-06 1.93514E-04 3.53948E-04



 n o d a l   p r i n t   o u t   f o r   t i m e  s t e p    9001                              ( at time 4.4995497E+00 )

 nodal point  x-disp     y-disp      z-disp      x-vel       y-vel       z-vel      x-accl      y-accl      z-accl      x-coor      y-coor      z-coor
    22626 -1.99956E-02-3.36555E-02-1.41181E+01-2.04405E-03-6.99995E-03-3.16009E+00 1.76058E-02-2.26343E-02 3.84129E-03 4.79442E+01-2.20634E+01-6.77956E+00



 n o d a l   p r i n t   o u t   f o r   t i m e  s t e p    9001                              ( at time 4.4995497E+00 )

 nodal point  x-rot      y-rot       z-rot       x-rot vel   y-rot vel   z-rot vel   x-rot acc   y-rot acc   z-rot acc
    22626 -6.72025E-07-4.97107E-05-8.32657E-05 3.43935E-06 4.39362E-05 7.65554E-05 2.75319E-05 2.17700E-04 3.65614E-04



 n o d a l   p r i n t   o u t   f o r   t i m e  s t e p    9201                              ( at time 4.5995397E+00 )

 nodal point  x-disp     y-disp      z-disp      x-vel       y-vel       z-vel      x-accl      y-accl      z-accl      x-coor      y-coor      z-coor
    22626 -2.01067E-02-3.45092E-02-1.44340E+01-1.18464E-04-9.89802E-03-3.15950E+00 1.92578E-02-2.89836E-02 5.88000E-03 4.79441E+01-2.20643E+01-7.09550E+00



 n o d a l   p r i n t   o u t   f o r   t i m e  s t e p    9201                              ( at time 4.5995397E+00 )

 nodal point  x-rot      y-rot       z-rot       x-rot vel   y-rot vel   z-rot vel   x-rot acc   y-rot acc   z-rot acc
    22626 -3.69019E-07-4.44920E-05-7.41568E-05 4.12281E-06 5.98894E-05 1.02853E-04 6.83531E-06 1.59548E-04 2.62998E-04



 n o d a l   p r i n t   o u t   f o r   t i m e  s t e p    9401                              ( at time 4.6995297E+00 )

 nodal point  x-disp     y-disp      z-disp      x-vel       y-vel       z-vel      x-accl      y-accl      z-accl      x-coor      y-coor      z-coor
    22626 -2.00020E-02-3.55794E-02-1.47499E+01 2.11941E-03-1.15006E-02-3.15936E+00 2.23810E-02-1.60277E-02 1.46404E-03 4.79442E+01-2.20654E+01-7.41141E+00



 n o d a l   p r i n t   o u t   f o r   t i m e  s t e p    9401                              ( at time 4.6995297E+00 )

 nodal point  x-rot      y-rot       z-rot       x-rot vel   y-rot vel   z-rot vel   x-rot acc   y-rot acc   z-rot acc
    22626  6.15617E-09-3.73405E-05-6.17234E-05 2.77373E-06 8.46326E-05 1.45522E-04-1.34922E-05 2.47457E-04 4.26737E-04



 n o d a l   p r i n t   o u t   f o r   t i m e  s t e p    9601                              ( at time 4.7995197E+00 )

 nodal point  x-disp     y-disp      z-disp      x-vel       y-vel       z-vel      x-accl      y-accl      z-accl      x-coor      y-coor      z-coor
    22626 -1.96906E-02-3.68012E-02-1.50658E+01 3.99811E-03-1.27552E-02-3.15961E+00 1.87889E-02-1.25468E-02-2.57280E-03 4.79445E+01-2.20666E+01-7.72732E+00



 n o d a l   p r i n t   o u t   f o r   t i m e  s t e p    9601                              ( at time 4.7995197E+00 )

 nodal point  x-rot      y-rot       z-rot       x-rot vel   y-rot vel   z-rot vel   x-rot acc   y-rot acc   z-rot acc
    22626  3.08601E-07-2.76319E-05-4.50796E-05-2.06896E-07 1.09274E-04 1.87315E-04-2.98093E-05 2.46444E-04 4.17972E-04



 n o d a l   p r i n t   o u t   f o r   t i m e  s t e p    9801                              ( at time 4.8995097E+00 )

 nodal point  x-disp     y-disp      z-disp      x-vel       y-vel       z-vel      x-accl      y-accl      z-accl      x-coor      y-coor      z-coor
    22626 -1.92010E-02-3.81273E-02-1.53818E+01 5.78199E-03-1.38602E-02-3.15987E+00 1.78406E-02-1.10516E-02-2.54657E-03 4.79450E+01-2.20679E+01-8.04327E+00



 n o d a l   p r i n t   o u t   f o r   t i m e  s t e p    9801                              ( at time 4.8995097E+00 )

 nodal point  x-rot      y-rot       z-rot       x-rot vel   y-rot vel   z-rot vel   x-rot acc   y-rot acc   z-rot acc
    22626  3.31514E-07-1.57935E-05-2.47288E-05-8.84587E-07 1.26257E-04 2.16600E-04-6.77759E-06 1.69842E-04 2.92877E-04



 n o d a l   p r i n t   o u t   f o r   t i m e  s t e p   10001                              ( at time 4.9994997E+00 )

 nodal point  x-disp     y-disp      z-disp      x-vel       y-vel       z-vel      x-accl      y-accl      z-accl      x-coor      y-coor      z-coor
    22626 -1.85001E-02-3.96143E-02-1.56977E+01 8.31869E-03-1.61464E-02-3.15913E+00 2.53694E-02-2.28634E-02 7.36546E-03 4.79457E+01-2.20694E+01-8.35921E+00



 n o d a l   p r i n t   o u t   f o r   t i m e  s t e p   10001                              ( at time 4.9994997E+00 )

 nodal point  x-rot      y-rot       z-rot       x-rot vel   y-rot vel   z-rot vel   x-rot acc   y-rot acc   z-rot acc
    22626  4.48322E-08-2.12172E-06-1.24301E-06-6.81780E-06 1.50421E-04 2.56595E-04-5.93379E-05 2.41663E-04 3.99990E-04



 n o d a l   p r i n t   o u t   f o r   t i m e  s t e p   10202                              ( at time 5.0999896E+00 )

 nodal point  x-disp     y-disp      z-disp      x-vel       y-vel       z-vel      x-accl      y-accl      z-accl      x-coor      y-coor      z-coor
    22626 -1.75658E-02-4.12916E-02-1.60151E+01 1.03095E-02-1.69922E-02-3.15691E+00 1.98111E-02-8.41741E-03 2.21218E-02 4.79466E+01-2.20711E+01-8.67656E+00



 n o d a l   p r i n t   o u t   f o r   t i m e  s t e p   10202                              ( at time 5.0999896E+00 )

 nodal point  x-rot      y-rot       z-rot       x-rot vel   y-rot vel   z-rot vel   x-rot acc   y-rot acc   z-rot acc
    22626 -3.63506E-07 1.50655E-05 2.58273E-05 1.91853E-06 1.90910E-04 2.84963E-04 8.69377E-05 4.02917E-04 2.82304E-04



 n o d a l   p r i n t   o u t   f o r   t i m e  s t e p   10402                              ( at time 5.1999796E+00 )

 nodal point  x-disp     y-disp      z-disp      x-vel       y-vel       z-vel      x-accl      y-accl      z-accl      x-coor      y-coor      z-coor
    22626 -1.64559E-02-4.29747E-02-1.63305E+01 1.15762E-02-1.61365E-02-3.15208E+00 1.26686E-02 8.55793E-03 4.83059E-02 4.79477E+01-2.20728E+01-8.99201E+00



 n o d a l   p r i n t   o u t   f o r   t i m e  s t e p   10402                              ( at time 5.1999796E+00 )

 nodal point  x-rot      y-rot       z-rot       x-rot vel   y-rot vel   z-rot vel   x-rot acc   y-rot acc   z-rot acc
    22626  5.09984E-07 3.79256E-05 5.55845E-05 1.67953E-05 2.69484E-04 3.02340E-04 1.48782E-04 7.85815E-04 1.73783E-04



 n o d a l   p r i n t   o u t   f o r   t i m e  s t e p   10602                              ( at time 5.2999696E+00 )

 nodal point  x-disp     y-disp      z-disp      x-vel       y-vel       z-vel      x-accl      y-accl      z-accl      x-coor      y-coor      z-coor
    22626 -1.51984E-02-4.44954E-02-1.66453E+01 1.35111E-02-1.42427E-02-3.14252E+00 1.93509E-02 1.89397E-02 9.56227E-02 4.79490E+01-2.20743E+01-9.30679E+00



 n o d a l   p r i n t   o u t   f o r   t i m e  s t e p   10602                              ( at time 5.2999696E+00 )

 nodal point  x-rot      y-rot       z-rot       x-rot vel   y-rot vel   z-rot vel   x-rot acc   y-rot acc   z-rot acc
    22626  4.27797E-06 7.01872E-05 8.64051E-05 6.37783E-05 3.89334E-04 3.10722E-04 4.69878E-04 1.19862E-03 8.38231E-05



 n o d a l   p r i n t   o u t   f o r   t i m e  s t e p   10802                              ( at time 5.3999596E+00 )

 nodal point  x-disp     y-disp      z-disp      x-vel       y-vel       z-vel      x-accl      y-accl      z-accl      x-coor      y-coor      z-coor
    22626 -1.37706E-02-4.57570E-02-1.69588E+01 1.56304E-02-1.06327E-02-3.12771E+00 2.11948E-02 3.61043E-02 1.48078E-01 4.79504E+01-2.20755E+01-9.62027E+00



 n o d a l   p r i n t   o u t   f o r   t i m e  s t e p   10802                              ( at time 5.3999596E+00 )

 nodal point  x-rot      y-rot       z-rot       x-rot vel   y-rot vel   z-rot vel   x-rot acc   y-rot acc   z-rot acc
    22626  1.48350E-05 1.15271E-04 1.16151E-04 1.55412E-04 5.20329E-04 2.80819E-04 9.16432E-04 1.31008E-03-2.99054E-04



 n o d a l   p r i n t   o u t   f o r   t i m e  s t e p   11002                              ( at time 5.4999496E+00 )

 nodal point  x-disp     y-disp      z-disp      x-vel       y-vel       z-vel      x-accl      y-accl      z-accl      x-coor      y-coor      z-coor
    22626 -1.21167E-02-4.66506E-02-1.72705E+01 1.74934E-02-7.14767E-03-3.10695E+00 1.86318E-02 3.48533E-02 2.07648E-01 4.79521E+01-2.20764E+01-9.93197E+00



 n o d a l   p r i n t   o u t   f o r   t i m e  s t e p   11002                              ( at time 5.4999496E+00 )

 nodal point  x-rot      y-rot       z-rot       x-rot vel   y-rot vel   z-rot vel   x-rot acc   y-rot acc   z-rot acc
    22626  3.40003E-05 1.78941E-04 1.43887E-04 2.46066E-04 7.32527E-04 2.55392E-04 9.06630E-04 2.12220E-03-2.54293E-04



 n o d a l   p r i n t   o u t   f o r   t i m e  s t e p   11202                              ( at time 5.5999396E+00 )

 nodal point  x-disp     y-disp      z-disp      x-vel       y-vel       z-vel      x-accl      y-accl      z-accl      x-coor      y-coor      z-coor
    22626 -1.02035E-02-4.70875E-02-1.75800E+01 2.04223E-02-2.00530E-03-3.08262E+00 2.92919E-02 5.14290E-02 2.43300E-01 4.79540E+01-2.20769E+01-1.02415E+01



 n o d a l   p r i n t   o u t   f o r   t i m e  s t e p   11202                              ( at time 5.5999396E+00 )

 nodal point  x-rot      y-rot       z-rot       x-rot vel   y-rot vel   z-rot vel   x-rot acc   y-rot acc   z-rot acc
    22626  6.37577E-05 2.63006E-04 1.68133E-04 3.45758E-04 9.74592E-04 2.31080E-04 9.97024E-04 2.42089E-03-2.43154E-04



 n o d a l   p r i n t   o u t   f o r   t i m e  s t e p   11402                              ( at time 5.6999296E+00 )

 nodal point  x-disp     y-disp      z-disp      x-vel       y-vel       z-vel      x-accl      y-accl      z-accl      x-coor      y-coor      z-coor
    22626 -8.08517E-03-4.68900E-02-1.78869E+01 2.24653E-02 4.85380E-03-3.05693E+00 2.04317E-02 6.85976E-02 2.56914E-01 4.79561E+01-2.20767E+01-1.05484E+01



 n o d a l   p r i n t   o u t   f o r   t i m e  s t e p   11402                              ( at time 5.6999296E+00 )

 nodal point  x-rot      y-rot       z-rot       x-rot vel   y-rot vel   z-rot vel   x-rot acc   y-rot acc   z-rot acc
    22626  1.06643E-04 3.72464E-04 1.87533E-04 4.88769E-04 1.22100E-03 1.77685E-04 1.43024E-03 2.46427E-03-5.33993E-04



 n o d a l   p r i n t   o u t   f o r   t i m e  s t e p   11602                              ( at time 5.7999195E+00 )

 nodal point  x-disp     y-disp      z-disp      x-vel       y-vel       z-vel      x-accl      y-accl      z-accl      x-coor      y-coor      z-coor
    22626 -5.70424E-03-4.60301E-02-1.81910E+01 2.49149E-02 1.14348E-02-3.02451E+00 2.44993E-02 6.58164E-02 3.24237E-01 4.79585E+01-2.20758E+01-1.08525E+01



 n o d a l   p r i n t   o u t   f o r   t i m e  s t e p   11602                              ( at time 5.7999195E+00 )

 nodal point  x-rot      y-rot       z-rot       x-rot vel   y-rot vel   z-rot vel   x-rot acc   y-rot acc   z-rot acc
    22626  1.62607E-04 5.09378E-04 2.01424E-04 6.31210E-04 1.52279E-03 1.03795E-04 1.42455E-03 3.01820E-03-7.38975E-04



 n o d a l   p r i n t   o u t   f o r   t i m e  s t e p   11802                              ( at time 5.8999095E+00 )

 nodal point  x-disp     y-disp      z-disp      x-vel       y-vel       z-vel      x-accl      y-accl      z-accl      x-coor      y-coor      z-coor
    22626 -3.06161E-03-4.45869E-02-1.84918E+01 2.78521E-02 1.75307E-02-2.99143E+00 2.93742E-02 6.09654E-02 3.30846E-01 4.79611E+01-2.20744E+01-1.11533E+01



 n o d a l   p r i n t   o u t   f o r   t i m e  s t e p   11802                              ( at time 5.8999095E+00 )

 nodal point  x-rot      y-rot       z-rot       x-rot vel   y-rot vel   z-rot vel   x-rot acc   y-rot acc   z-rot acc
    22626  2.34802E-04 6.75901E-04 2.08129E-04 7.99354E-04 1.82334E-03 2.89353E-05 1.68161E-03 3.00584E-03-7.48676E-04



 n o d a l   p r i n t   o u t   f o r   t i m e  s t e p   12002                              ( at time 5.9998995E+00 )

 nodal point  x-disp     y-disp      z-disp      x-vel       y-vel       z-vel      x-accl      y-accl      z-accl      x-coor      y-coor      z-coor
    22626 -1.57392E-04-4.25645E-02-1.87890E+01 3.06703E-02 2.31418E-02-2.95543E+00 2.81855E-02 5.61170E-02 3.60068E-01 4.79640E+01-2.20724E+01-1.14505E+01



 n o d a l   p r i n t   o u t   f o r   t i m e  s t e p   12002                              ( at time 5.9998995E+00 )

 nodal point  x-rot      y-rot       z-rot       x-rot vel   y-rot vel   z-rot vel   x-rot acc   y-rot acc   z-rot acc
    22626  3.21973E-04 8.75722E-04 2.07262E-04 9.45376E-04 2.14958E-03-5.24847E-05 1.46036E-03 3.26278E-03-8.14282E-04



 n o d a l   p r i n t   o u t   f o r   t i m e  s t e p   12202                              ( at time 6.0998895E+00 )

 nodal point  x-disp     y-disp      z-disp      x-vel       y-vel       z-vel      x-accl      y-accl      z-accl      x-coor      y-coor      z-coor
    22626  3.07430E-03-3.98079E-02-1.90826E+01 3.39031E-02 3.18437E-02-2.91650E+00 3.23313E-02 8.70266E-02 3.89282E-01 4.79673E+01-2.20696E+01-1.17441E+01



 n o d a l   p r i n t   o u t   f o r   t i m e  s t e p   12202                              ( at time 6.0998895E+00 )

 nodal point  x-rot      y-rot       z-rot       x-rot vel   y-rot vel   z-rot vel   x-rot acc   y-rot acc   z-rot acc
    22626  4.27355E-04 1.10780E-03 1.96653E-04 1.14343E-03 2.49047E-03-1.53514E-04 1.98069E-03 3.40916E-03-1.01039E-03



 n o d a l   p r i n t   o u t   f o r   t i m e  s t e p   12402                              ( at time 6.1998795E+00 )

 nodal point  x-disp     y-disp      z-disp      x-vel       y-vel       z-vel      x-accl      y-accl      z-accl      x-coor      y-coor      z-coor
    22626  6.64654E-03-3.63933E-02-1.93723E+01 3.75829E-02 3.67007E-02-2.87685E+00 3.68014E-02 4.85752E-02 3.96535E-01 4.79708E+01-2.20662E+01-1.20338E+01



 n o d a l   p r i n t   o u t   f o r   t i m e  s t e p   12402                              ( at time 6.1998795E+00 )

 nodal point  x-rot      y-rot       z-rot       x-rot vel   y-rot vel   z-rot vel   x-rot acc   y-rot acc   z-rot acc
    22626  5.49018E-04 1.37318E-03 1.77543E-04 1.29763E-03 2.82838E-03-2.43168E-04 1.54220E-03 3.37952E-03-8.96629E-04



 n o d a l   p r i n t   o u t   f o r   t i m e  s t e p   12602                              ( at time 6.2998695E+00 )

 nodal point  x-disp     y-disp      z-disp      x-vel       y-vel       z-vel      x-accl      y-accl      z-accl      x-coor      y-coor      z-coor
    22626  1.06192E-02-3.23337E-02-1.96579E+01 4.21849E-02 4.44374E-02-2.83529E+00 4.60247E-02 7.73746E-02 4.15703E-01 4.79748E+01-2.20621E+01-1.23194E+01



 n o d a l   p r i n t   o u t   f o r   t i m e  s t e p   12602                              ( at time 6.2998695E+00 )

 nodal point  x-rot      y-rot       z-rot       x-rot vel   y-rot vel   z-rot vel   x-rot acc   y-rot acc   z-rot acc
    22626  6.88179E-04 1.67396E-03 1.47117E-04 1.50712E-03 3.16909E-03-3.66035E-04 2.09508E-03 3.40739E-03-1.22879E-03



 n o d a l   p r i n t   o u t   f o r   t i m e  s t e p   12802                              ( at time 6.3998595E+00 )

 nodal point  x-disp     y-disp      z-disp      x-vel       y-vel       z-vel      x-accl      y-accl      z-accl      x-coor      y-coor      z-coor
    22626  1.50826E-02-2.74995E-02-1.99391E+01 4.82129E-02 5.21170E-02-2.79002E+00 6.02858E-02 7.68040E-02 4.52664E-01 4.79793E+01-2.20573E+01-1.26006E+01



 n o d a l   p r i n t   o u t   f o r   t i m e  s t e p   12802                              ( at time 6.3998595E+00 )

 nodal point  x-rot      y-rot       z-rot       x-rot vel   y-rot vel   z-rot vel   x-rot acc   y-rot acc   z-rot acc
    22626  8.47620E-04 2.00791E-03 1.04931E-04 1.69711E-03 3.53483E-03-4.81822E-04 1.90008E-03 3.65774E-03-1.15799E-03



 n o d a l   p r i n t   o u t   f o r   t i m e  s t e p   13002                              ( at time 6.4998495E+00 )

 nodal point  x-disp     y-disp      z-disp      x-vel       y-vel       z-vel      x-accl      y-accl      z-accl      x-coor      y-coor      z-coor
    22626  2.01542E-02-2.19784E-02-2.02158E+01 5.40248E-02 5.88902E-02-2.74428E+00 5.81248E-02 6.77393E-02 4.57502E-01 4.79843E+01-2.20518E+01-1.28773E+01



 n o d a l   p r i n t   o u t   f o r   t i m e  s t e p   13002                              ( at time 6.4998495E+00 )

 nodal point  x-rot      y-rot       z-rot       x-rot vel   y-rot vel   z-rot vel   x-rot acc   y-rot acc   z-rot acc
    22626  1.02596E-03 2.37925E-03 5.18626E-05 1.87815E-03 3.87408E-03-5.74241E-04 1.81060E-03 3.39290E-03-9.24279E-04



 n o d a l   p r i n t   o u t   f o r   t i m e  s t e p   13202                              ( at time 6.5998395E+00 )

 nodal point  x-disp     y-disp      z-disp      x-vel       y-vel       z-vel      x-accl      y-accl      z-accl      x-coor      y-coor      z-coor
    22626  2.58885E-02-1.56566E-02-2.04879E+01 6.11798E-02 6.68756E-02-2.69739E+00 7.15573E-02 7.98611E-02 4.68912E-01 4.79901E+01-2.20454E+01-1.31494E+01



 n o d a l   p r i n t   o u t   f o r   t i m e  s t e p   13202                              ( at time 6.5998395E+00 )

 nodal point  x-rot      y-rot       z-rot       x-rot vel   y-rot vel   z-rot vel   x-rot acc   y-rot acc   z-rot acc
    22626  1.22524E-03 2.78283E-03-1.26839E-05 2.09549E-03 4.19716E-03-7.03672E-04 2.17363E-03 3.23106E-03-1.29444E-03



 n o d a l   p r i n t   o u t   f o r   t i m e  s t e p   13402                              ( at time 6.6998295E+00 )

 nodal point  x-disp     y-disp      z-disp      x-vel       y-vel       z-vel      x-accl      y-accl      z-accl      x-coor      y-coor      z-coor
    22626  3.23874E-02-8.53346E-03-2.07551E+01 6.89452E-02 7.51698E-02-2.64740E+00 7.76617E-02 8.29508E-02 4.99962E-01 4.79966E+01-2.20383E+01-1.34166E+01



 n o d a l   p r i n t   o u t   f o r   t i m e  s t e p   13402                              ( at time 6.6998295E+00 )

 nodal point  x-rot      y-rot       z-rot       x-rot vel   y-rot vel   z-rot vel   x-rot acc   y-rot acc   z-rot acc
    22626  1.44605E-03 3.21966E-03-9.05682E-05 2.30765E-03 4.53617E-03-8.28477E-04 2.12179E-03 3.39042E-03-1.24818E-03



 n o d a l   p r i n t   o u t   f o r   t i m e  s t e p   13602                              ( at time 6.7998195E+00 )

 nodal point  x-disp     y-disp      z-disp      x-vel       y-vel       z-vel      x-accl      y-accl      z-accl      x-coor      y-coor      z-coor
    22626  3.97010E-02-6.99679E-04-2.10174E+01 7.72992E-02 8.16144E-02-2.59770E+00 8.35483E-02 6.44527E-02 4.97010E-01 4.80039E+01-2.20305E+01-1.36789E+01



 n o d a l   p r i n t   o u t   f o r   t i m e  s t e p   13602                              ( at time 6.7998195E+00 )

 nodal point  x-rot      y-rot       z-rot       x-rot vel   y-rot vel   z-rot vel   x-rot acc   y-rot acc   z-rot acc
    22626  1.68864E-03 3.68755E-03-1.79267E-04 2.55001E-03 4.84246E-03-9.42012E-04 2.42391E-03 3.06329E-03-1.13546E-03



 n o d a l   p r i n t   o u t   f o r   t i m e  s t e p   13802                              ( at time 6.8998095E+00 )

 nodal point  x-disp     y-disp      z-disp      x-vel       y-vel       z-vel      x-accl      y-accl      z-accl      x-coor      y-coor      z-coor
    22626  4.79192E-02 7.88492E-03-2.12746E+01 8.69417E-02 9.01065E-02-2.54605E+00 9.64346E-02 8.49293E-02 5.16603E-01 4.80121E+01-2.20219E+01-1.39361E+01



 n o d a l   p r i n t   o u t   f o r   t i m e  s t e p   13802                              ( at time 6.8998095E+00 )

 nodal point  x-rot      y-rot       z-rot       x-rot vel   y-rot vel   z-rot vel   x-rot acc   y-rot acc   z-rot acc
    22626  1.95394E-03 4.18594E-03-2.81538E-04 2.75218E-03 5.14466E-03-1.09493E-03 2.02191E-03 3.02228E-03-1.52933E-03



 n o d a l   p r i n t   o u t   f o r   t i m e  s t e p   14002                              ( at time 6.9997995E+00 )

 nodal point  x-disp     y-disp      z-disp      x-vel       y-vel       z-vel      x-accl      y-accl      z-accl      x-coor      y-coor      z-coor
    22626  5.70490E-02 1.73167E-02-2.15265E+01 9.60346E-02 9.77913E-02-2.49440E+00 9.09388E-02 7.68560E-02 5.16574E-01 4.80212E+01-2.20125E+01-1.41880E+01



 n o d a l   p r i n t   o u t   f o r   t i m e  s t e p   14002                              ( at time 6.9997995E+00 )

 nodal point  x-rot      y-rot       z-rot       x-rot vel   y-rot vel   z-rot vel   x-rot acc   y-rot acc   z-rot acc
    22626  2.24247E-03 4.71464E-03-3.96925E-04 3.01287E-03 5.42105E-03-1.21144E-03 2.60714E-03 2.76414E-03-1.16520E-03



 n o d a l   p r i n t   o u t   f o r   t i m e  s t e p   14202                              ( at time 7.0997895E+00 )

 nodal point  x-disp     y-disp      z-disp      x-vel       y-vel       z-vel      x-accl      y-accl      z-accl      x-coor      y-coor      z-coor
    22626  6.71194E-02 2.74830E-02-2.17731E+01 1.05081E-01 1.05814E-01-2.43782E+00 9.04749E-02 8.02346E-02 5.65855E-01 4.80313E+01-2.20023E+01-1.44346E+01



 n o d a l   p r i n t   o u t   f o r   t i m e  s t e p   14202                              ( at time 7.0997895E+00 )

 nodal point  x-rot      y-rot       z-rot       x-rot vel   y-rot vel   z-rot vel   x-rot acc   y-rot acc   z-rot acc
    22626  2.55523E-03 5.27280E-03-5.24107E-04 3.23420E-03 5.73021E-03-1.34610E-03 2.21347E-03 3.09193E-03-1.34675E-03



 n o d a l   p r i n t   o u t   f o r   t i m e  s t e p   14402                              ( at time 7.1997794E+00 )

 nodal point  x-disp     y-disp      z-disp      x-vel       y-vel       z-vel      x-accl      y-accl      z-accl      x-coor      y-coor      z-coor
    22626  7.81828E-02 3.83545E-02-2.20142E+01 1.15703E-01 1.11836E-01-2.38376E+00 1.06227E-01 6.02218E-02 5.40614E-01 4.80424E+01-2.19914E+01-1.46757E+01



 n o d a l   p r i n t   o u t   f o r   t i m e  s t e p   14402                              ( at time 7.1997794E+00 )

 nodal point  x-rot      y-rot       z-rot       x-rot vel   y-rot vel   z-rot vel   x-rot acc   y-rot acc   z-rot acc
    22626  2.89093E-03 5.86036E-03-6.64623E-04 3.48240E-03 6.01793E-03-1.46373E-03 2.48223E-03 2.87747E-03-1.17641E-03



 n o d a l   p r i n t   o u t   f o r   t i m e  s t e p   14602                              ( at time 7.2997694E+00 )

 nodal point  x-disp     y-disp      z-disp      x-vel       y-vel       z-vel      x-accl      y-accl      z-accl      x-coor      y-coor      z-coor
    22626  9.02087E-02 4.98674E-02-2.22496E+01 1.24805E-01 1.17835E-01-2.32725E+00 9.10350E-02 6.00036E-02 5.65147E-01 4.80544E+01-2.19799E+01-1.49111E+01



 n o d a l   p r i n t   o u t   f o r   t i m e  s t e p   14602                              ( at time 7.2997694E+00 )

 nodal point  x-rot      y-rot       z-rot       x-rot vel   y-rot vel   z-rot vel   x-rot acc   y-rot acc   z-rot acc
    22626  3.25239E-03 6.47603E-03-8.16193E-04 3.73591E-03 6.29876E-03-1.57123E-03 2.53540E-03 2.80858E-03-1.07518E-03



 n o d a l   p r i n t   o u t   f o r   t i m e  s t e p   14802                              ( at time 7.3997594E+00 )

 nodal point  x-disp     y-disp      z-disp      x-vel       y-vel       z-vel      x-accl      y-accl      z-accl      x-coor      y-coor      z-coor
    22626  1.03123E-01 6.20294E-02-2.24794E+01 1.33851E-01 1.24367E-01-2.26975E+00 9.04684E-02 6.53244E-02 5.75114E-01 4.80673E+01-2.19678E+01-1.51409E+01



 n o d a l   p r i n t   o u t   f o r   t i m e  s t e p   14802                              ( at time 7.3997594E+00 )

 nodal point  x-rot      y-rot       z-rot       x-rot vel   y-rot vel   z-rot vel   x-rot acc   y-rot acc   z-rot acc
    22626  3.63881E-03 7.12151E-03-9.79985E-04 3.99085E-03 6.59532E-03-1.68529E-03 2.54969E-03 2.96594E-03-1.14064E-03



 n o d a l   p r i n t   o u t   f o r   t i m e  s t e p   15002                              ( at time 7.4997494E+00 )

 nodal point  x-disp     y-disp      z-disp      x-vel       y-vel       z-vel      x-accl      y-accl      z-accl      x-coor      y-coor      z-coor
    22626  1.16938E-01 7.46641E-02-2.27035E+01 1.42428E-01 1.29105E-01-2.21083E+00 8.57755E-02 4.73857E-02 5.89258E-01 4.80811E+01-2.19551E+01-1.53650E+01



 n o d a l   p r i n t   o u t   f o r   t i m e  s t e p   15002                              ( at time 7.4997494E+00 )

 nodal point  x-rot      y-rot       z-rot       x-rot vel   y-rot vel   z-rot vel   x-rot acc   y-rot acc   z-rot acc
    22626  4.05103E-03 7.79397E-03-1.15315E-03 4.25370E-03 6.88013E-03-1.78848E-03 2.62873E-03 2.84831E-03-1.03206E-03



 n o d a l   p r i n t   o u t   f o r   t i m e  s t e p   15202                              ( at time 7.5997394E+00 )

 nodal point  x-disp     y-disp      z-disp      x-vel       y-vel       z-vel      x-accl      y-accl      z-accl      x-coor      y-coor      z-coor
    22626  1.31592E-01 8.76926E-02-2.29215E+01 1.49682E-01 1.31701E-01-2.14911E+00 7.25438E-02 2.59619E-02 6.17223E-01 4.80958E+01-2.19421E+01-1.55830E+01



 n o d a l   p r i n t   o u t   f o r   t i m e  s t e p   15202                              ( at time 7.5997394E+00 )

 nodal point  x-rot      y-rot       z-rot       x-rot vel   y-rot vel   z-rot vel   x-rot acc   y-rot acc   z-rot acc
    22626  4.49015E-03 8.49625E-03-1.33713E-03 4.53758E-03 7.15988E-03-1.88925E-03 2.83912E-03 2.79780E-03-1.00778E-03



 n o d a l   p r i n t   o u t   f o r   t i m e  s t e p   15402                              ( at time 7.6997294E+00 )

 nodal point  x-disp     y-disp      z-disp      x-vel       y-vel       z-vel      x-accl      y-accl      z-accl      x-coor      y-coor      z-coor
    22626  1.46956E-01 1.01037E-01-2.31331E+01 1.57132E-01 1.35614E-01-2.08579E+00 7.45110E-02 3.91332E-02 6.33294E-01 4.81111E+01-2.19288E+01-1.57946E+01



 n o d a l   p r i n t   o u t   f o r   t i m e  s t e p   15402                              ( at time 7.6997294E+00 )

 nodal point  x-rot      y-rot       z-rot       x-rot vel   y-rot vel   z-rot vel   x-rot acc   y-rot acc   z-rot acc
    22626  4.95851E-03 9.22693E-03-1.53074E-03 4.84409E-03 7.43175E-03-1.97873E-03 3.06539E-03 2.71902E-03-8.94873E-04



 n o d a l   p r i n t   o u t   f o r   t i m e  s t e p   15602                              ( at time 7.7997194E+00 )

 nodal point  x-disp     y-disp      z-disp      x-vel       y-vel       z-vel      x-accl      y-accl      z-accl      x-coor      y-coor      z-coor
    22626  1.63099E-01 1.14654E-01-2.33385E+01 1.64840E-01 1.36548E-01-2.02055E+00 7.70846E-02 9.33563E-03 6.52417E-01 4.81273E+01-2.19151E+01-1.60000E+01



 n o d a l   p r i n t   o u t   f o r   t i m e  s t e p   15602                              ( at time 7.7997194E+00 )

 nodal point  x-rot      y-rot       z-rot       x-rot vel   y-rot vel   z-rot vel   x-rot acc   y-rot acc   z-rot acc
    22626  5.45639E-03 9.98460E-03-1.73325E-03 5.11785E-03 7.72331E-03-2.07260E-03 2.73784E-03 2.91582E-03-9.38826E-04



 n o d a l   p r i n t   o u t   f o r   t i m e  s t e p   15802                              ( at time 7.8997094E+00 )

 nodal point  x-disp     y-disp      z-disp      x-vel       y-vel       z-vel      x-accl      y-accl      z-accl      x-coor      y-coor      z-coor
    22626  1.79966E-01 1.28388E-01-2.35372E+01 1.72351E-01 1.38561E-01-1.95511E+00 7.51221E-02 2.01344E-02 6.54460E-01 4.81441E+01-2.19014E+01-1.61987E+01



 n o d a l   p r i n t   o u t   f o r   t i m e  s t e p   15802                              ( at time 7.8997094E+00 )

 nodal point  x-rot      y-rot       z-rot       x-rot vel   y-rot vel   z-rot vel   x-rot acc   y-rot acc   z-rot acc
    22626  5.98386E-03 1.07688E-02-1.94477E-03 5.43924E-03 7.95825E-03-2.15099E-03 3.21424E-03 2.34969E-03-7.83941E-04



 n o d a l   p r i n t   o u t   f o r   t i m e  s t e p   16002                              ( at time 7.9996994E+00 )

 nodal point  x-disp     y-disp      z-disp      x-vel       y-vel       z-vel      x-accl      y-accl      z-accl      x-coor      y-coor      z-coor
    22626  1.97571E-01 1.42266E-01-2.37293E+01 1.79724E-01 1.39125E-01-1.88663E+00 7.37339E-02 5.64585E-03 6.84922E-01 4.81618E+01-2.18875E+01-1.63908E+01



 n o d a l   p r i n t   o u t   f o r   t i m e  s t e p   16002                              ( at time 7.9996994E+00 )

 nodal point  x-rot      y-rot       z-rot       x-rot vel   y-rot vel   z-rot vel   x-rot acc   y-rot acc   z-rot acc
    22626  6.54276E-03 1.15766E-02-2.16347E-03 5.74302E-03 8.20230E-03-2.23057E-03 3.03813E-03 2.44068E-03-7.95934E-04



 n o d a l   p r i n t   o u t   f o r   t i m e  s t e p   16202                              ( at time 8.0996894E+00 )

 nodal point  x-disp     y-disp      z-disp      x-vel       y-vel       z-vel      x-accl      y-accl      z-accl      x-coor      y-coor      z-coor
    22626  2.15879E-01 1.56081E-01-2.39146E+01 1.86551E-01 1.38001E-01-1.81754E+00 6.82728E-02-1.12421E-02 6.90897E-01 4.81801E+01-2.18737E+01-1.65761E+01



 n o d a l   p r i n t   o u t   f o r   t i m e  s t e p   16202                              ( at time 8.0996894E+00 )

 nodal point  x-rot      y-rot       z-rot       x-rot vel   y-rot vel   z-rot vel   x-rot acc   y-rot acc   z-rot acc
    22626  7.13358E-03 1.24081E-02-2.39019E-03 6.07530E-03 8.42523E-03-2.30086E-03 3.32309E-03 2.22957E-03-7.02961E-04



 n o d a l   p r i n t   o u t   f o r   t i m e  s t e p   16402                              ( at time 8.1996794E+00 )

 nodal point  x-disp     y-disp      z-disp      x-vel       y-vel       z-vel      x-accl      y-accl      z-accl      x-coor      y-coor      z-coor
    22626  2.34912E-01 1.69881E-01-2.40927E+01 1.94782E-01 1.37002E-01-1.74779E+00 8.23253E-02-9.99194E-03 6.97618E-01 4.81991E+01-2.18599E+01-1.67542E+01



 n o d a l   p r i n t   o u t   f o r   t i m e  s t e p   16402                              ( at time 8.1996794E+00 )

 nodal point  x-rot      y-rot       z-rot       x-rot vel   y-rot vel   z-rot vel   x-rot acc   y-rot acc   z-rot acc
    22626  7.75786E-03 1.32607E-02-2.62392E-03 6.40359E-03 8.60789E-03-2.35721E-03 3.28323E-03 1.82680E-03-5.63472E-04



 n o d a l   p r i n t   o u t   f o r   t i m e  s t e p   16602                              ( at time 8.2996694E+00 )

 nodal point  x-disp     y-disp      z-disp      x-vel       y-vel       z-vel      x-accl      y-accl      z-accl      x-coor      y-coor      z-coor
    22626  2.54716E-01 1.83520E-01-2.42638E+01 2.00985E-01 1.35411E-01-1.67410E+00 6.20310E-02-1.59093E-02 7.36970E-01 4.82189E+01-2.18463E+01-1.69253E+01



 n o d a l   p r i n t   o u t   f o r   t i m e  s t e p   16602                              ( at time 8.2996694E+00 )

 nodal point  x-rot      y-rot       z-rot       x-rot vel   y-rot vel   z-rot vel   x-rot acc   y-rot acc   z-rot acc
    22626  8.41588E-03 1.41321E-02-2.86445E-03 6.76345E-03 8.82170E-03-2.43389E-03 3.59898E-03 2.13828E-03-7.66910E-04



 n o d a l   p r i n t   o u t   f o r   t i m e  s t e p   16802                              ( at time 8.3996594E+00 )

 nodal point  x-disp     y-disp      z-disp      x-vel       y-vel       z-vel      x-accl      y-accl      z-accl      x-coor      y-coor      z-coor
    22626  2.75141E-01 1.96911E-01-2.44276E+01 2.07805E-01 1.31893E-01-1.60241E+00 6.82055E-02-3.51871E-02 7.17022E-01 4.82393E+01-2.18329E+01-1.70891E+01



 n o d a l   p r i n t   o u t   f o r   t i m e  s t e p   16802                              ( at time 8.3996594E+00 )

 nodal point  x-rot      y-rot       z-rot       x-rot vel   y-rot vel   z-rot vel   x-rot acc   y-rot acc   z-rot acc
    22626  9.10986E-03 1.50212E-02-3.11153E-03 7.10584E-03 8.96332E-03-2.49872E-03 3.42425E-03 1.41634E-03-6.48368E-04



 n o d a l   p r i n t   o u t   f o r   t i m e  s t e p   17002                              ( at time 8.4996494E+00 )

 nodal point  x-disp     y-disp      z-disp      x-vel       y-vel       z-vel      x-accl      y-accl      z-accl      x-coor      y-coor      z-coor
    22626  2.96331E-01 2.09834E-01-2.45840E+01 2.15639E-01 1.26041E-01-1.52671E+00 7.83551E-02-5.85220E-02 7.57064E-01 4.82605E+01-2.18200E+01-1.72455E+01



 n o d a l   p r i n t   o u t   f o r   t i m e  s t e p   17002                              ( at time 8.4996494E+00 )

 nodal point  x-rot      y-rot       z-rot       x-rot vel   y-rot vel   z-rot vel   x-rot acc   y-rot acc   z-rot acc
    22626  9.83868E-03 1.59244E-02-3.36495E-03 7.47181E-03 9.12449E-03-2.55718E-03 3.66002E-03 1.61186E-03-5.84683E-04



 n o d a l   p r i n t   o u t   f o r   t i m e  s t e p   17202                              ( at time 8.5996394E+00 )

 nodal point  x-disp     y-disp      z-disp      x-vel       y-vel       z-vel      x-accl      y-accl      z-accl      x-coor      y-coor      z-coor
    22626  3.18178E-01 2.22267E-01-2.47328E+01 2.21282E-01 1.21399E-01-1.44905E+00 5.64312E-02-4.64240E-02 7.76669E-01 4.82824E+01-2.18075E+01-1.73943E+01



 n o d a l   p r i n t   o u t   f o r   t i m e  s t e p   17202                              ( at time 8.5996394E+00 )

 nodal point  x-rot      y-rot       z-rot       x-rot vel   y-rot vel   z-rot vel   x-rot acc   y-rot acc   z-rot acc
    22626  1.06066E-02 1.68424E-02-3.62591E-03 7.87676E-03 9.24832E-03-2.62340E-03 4.05000E-03 1.23843E-03-6.62291E-04



 n o d a l   p r i n t   o u t   f o r   t i m e  s t e p   17402                              ( at time 8.6996293E+00 )

 nodal point  x-disp     y-disp      z-disp      x-vel       y-vel       z-vel      x-accl      y-accl      z-accl      x-coor      y-coor      z-coor
    22626  3.40660E-01 2.34049E-01-2.48738E+01 2.28081E-01 1.14481E-01-1.37206E+00 6.79940E-02-6.91956E-02 7.69944E-01 4.83048E+01-2.17957E+01-1.75353E+01



 n o d a l   p r i n t   o u t   f o r   t i m e  s t e p   17402                              ( at time 8.6996293E+00 )

 nodal point  x-rot      y-rot       z-rot       x-rot vel   y-rot vel   z-rot vel   x-rot acc   y-rot acc   z-rot acc
    22626  1.14126E-02 1.77712E-02-3.89180E-03 8.24752E-03 9.34357E-03-2.68669E-03 3.70787E-03 9.52607E-04-6.32894E-04



 n o d a l   p r i n t   o u t   f o r   t i m e  s t e p   17602                              ( at time 8.7996193E+00 )

 nodal point  x-disp     y-disp      z-disp      x-vel       y-vel       z-vel      x-accl      y-accl      z-accl      x-coor      y-coor      z-coor
    22626  3.63834E-01 2.45173E-01-2.50070E+01 2.35333E-01 1.07889E-01-1.29235E+00 7.25347E-02-6.59186E-02 7.97187E-01 4.83280E+01-2.17846E+01-1.76685E+01



 n o d a l   p r i n t   o u t   f o r   t i m e  s t e p   17602                              ( at time 8.7996193E+00 )

 nodal point  x-rot      y-rot       z-rot       x-rot vel   y-rot vel   z-rot vel   x-rot acc   y-rot acc   z-rot acc
    22626  1.22564E-02 1.87118E-02-4.16510E-03 8.65727E-03 9.45619E-03-2.75612E-03 4.09789E-03 1.12631E-03-6.94446E-04



 n o d a l   p r i n t   o u t   f o r   t i m e  s t e p   17802                              ( at time 8.8996093E+00 )

 nodal point  x-disp     y-disp      z-disp      x-vel       y-vel       z-vel      x-accl      y-accl      z-accl      x-coor      y-coor      z-coor
    22626  3.87739E-01 2.55610E-01-2.51323E+01 2.42943E-01 1.01306E-01-1.21390E+00 7.61027E-02-6.58370E-02 7.84605E-01 4.83519E+01-2.17742E+01-1.77938E+01



 n o d a l   p r i n t   o u t   f o r   t i m e  s t e p   17802                              ( at time 8.8996093E+00 )

 nodal point  x-rot      y-rot       z-rot       x-rot vel   y-rot vel   z-rot vel   x-rot acc   y-rot acc   z-rot acc
    22626  1.31418E-02 1.96610E-02-4.44335E-03 9.05560E-03 9.54749E-03-2.80926E-03 3.98373E-03 9.13049E-04-5.31438E-04



 n o d a l   p r i n t   o u t   f o r   t i m e  s t e p   18002                              ( at time 8.9995993E+00 )

 nodal point  x-disp     y-disp      z-disp      x-vel       y-vel       z-vel      x-accl      y-accl      z-accl      x-coor      y-coor      z-coor
    22626  4.12385E-01 2.65461E-01-2.52498E+01 2.50176E-01 9.49742E-02-1.13657E+00 7.23381E-02-6.33274E-02 7.73305E-01 4.83766E+01-2.17643E+01-1.79113E+01



 n o d a l   p r i n t   o u t   f o r   t i m e  s t e p   18002                              ( at time 8.9995993E+00 )

 nodal point  x-rot      y-rot       z-rot       x-rot vel   y-rot vel   z-rot vel   x-rot acc   y-rot acc   z-rot acc
    22626  1.40668E-02 2.06200E-02-4.72838E-03 9.44392E-03 9.64611E-03-2.86178E-03 3.88366E-03 9.86380E-04-5.25233E-04



 n o d a l   p r i n t   o u t   f o r   t i m e  s t e p   18202                              ( at time 9.0995893E+00 )

 nodal point  x-disp     y-disp      z-disp      x-vel       y-vel       z-vel      x-accl      y-accl      z-accl      x-coor      y-coor      z-coor
    22626  4.37756E-01 2.74716E-01-2.53597E+01 2.57349E-01 8.95804E-02-1.06199E+00 7.17429E-02-5.39437E-02 7.45917E-01 4.84019E+01-2.17551E+01-1.80212E+01



 n o d a l   p r i n t   o u t   f o r   t i m e  s t e p   18202                              ( at time 9.0995893E+00 )

 nodal point  x-rot      y-rot       z-rot       x-rot vel   y-rot vel   z-rot vel   x-rot acc   y-rot acc   z-rot acc
    22626  1.50313E-02 2.15871E-02-5.01811E-03 9.83631E-03 9.71821E-03-2.90430E-03 3.92427E-03 7.21056E-04-4.25245E-04



 n o d a l   p r i n t   o u t   f o r   t i m e  s t e p   18402                              ( at time 9.1995793E+00 )

 nodal point  x-disp     y-disp      z-disp      x-vel       y-vel       z-vel      x-accl      y-accl      z-accl      x-coor      y-coor      z-coor
    22626  4.63747E-01 2.83429E-01-2.54622E+01 2.63514E-01 8.46991E-02-9.89419E-01 6.16511E-02-4.88173E-02 7.25785E-01 4.84279E+01-2.17464E+01-1.81237E+01



 n o d a l   p r i n t   o u t   f o r   t i m e  s t e p   18402                              ( at time 9.1995793E+00 )

 nodal point  x-rot      y-rot       z-rot       x-rot vel   y-rot vel   z-rot vel   x-rot acc   y-rot acc   z-rot acc
    22626  1.60346E-02 2.25654E-02-5.31177E-03 1.02286E-02 9.83226E-03-2.96744E-03 3.92312E-03 1.14059E-03-6.31482E-04



 n o d a l   p r i n t   o u t   f o r   t i m e  s t e p   18602                              ( at time 9.2995693E+00 )

 nodal point  x-disp     y-disp      z-disp      x-vel       y-vel       z-vel      x-accl      y-accl      z-accl      x-coor      y-coor      z-coor
    22626  4.90453E-01 2.91680E-01-2.55574E+01 2.70708E-01 8.02625E-02-9.15984E-01 7.19522E-02-4.43708E-02 7.34428E-01 4.84546E+01-2.17381E+01-1.82189E+01



 n o d a l   p r i n t   o u t   f o r   t i m e  s t e p   18602                              ( at time 9.2995693E+00 )

 nodal point  x-rot      y-rot       z-rot       x-rot vel   y-rot vel   z-rot vel   x-rot acc   y-rot acc   z-rot acc
    22626  1.70768E-02 2.35525E-02-5.61102E-03 1.06196E-02 9.90704E-03-3.00842E-03 3.91100E-03 7.47918E-04-4.09821E-04



 n o d a l   p r i n t   o u t   f o r   t i m e  s t e p   18802                              ( at time 9.3995593E+00 )

 nodal point  x-disp     y-disp      z-disp      x-vel       y-vel       z-vel      x-accl      y-accl      z-accl      x-coor      y-coor      z-coor
    22626  5.17851E-01 2.99480E-01-2.56454E+01 2.77544E-01 7.55516E-02-8.44231E-01 6.83585E-02-4.71139E-02 7.17600E-01 4.84820E+01-2.17303E+01-1.83069E+01



 n o d a l   p r i n t   o u t   f o r   t i m e  s t e p   18802                              ( at time 9.3995593E+00 )

 nodal point  x-rot      y-rot       z-rot       x-rot vel   y-rot vel   z-rot vel   x-rot acc   y-rot acc   z-rot acc
    22626  1.81600E-02 2.45457E-02-5.91395E-03 1.10260E-02 9.97924E-03-3.04464E-03 4.06392E-03 7.21988E-04-3.62275E-04



 n o d a l   p r i n t   o u t   f o r   t i m e  s t e p   19002                              ( at time 9.4995493E+00 )

 nodal point  x-disp     y-disp      z-disp      x-vel       y-vel       z-vel      x-accl      y-accl      z-accl      x-coor      y-coor      z-coor
    22626  5.45970E-01 3.06902E-01-2.57263E+01 2.84561E-01 7.14973E-02-7.75052E-01 7.01790E-02-4.05468E-02 6.91857E-01 4.85102E+01-2.17229E+01-1.83878E+01



 n o d a l   p r i n t   o u t   f o r   t i m e  s t e p   19002                              ( at time 9.4995493E+00 )

 nodal point  x-rot      y-rot       z-rot       x-rot vel   y-rot vel   z-rot vel   x-rot acc   y-rot acc   z-rot acc
    22626  1.92820E-02 2.55476E-02-6.22239E-03 1.13991E-02 1.00706E-02-3.09452E-03 3.73140E-03 9.13366E-04-4.98809E-04



 n o d a l   p r i n t   o u t   f o r   t i m e  s t e p   19202                              ( at time 9.5995393E+00 )

 nodal point  x-disp     y-disp      z-disp      x-vel       y-vel       z-vel      x-accl      y-accl      z-accl      x-coor      y-coor      z-coor
    22626  5.74714E-01 3.13860E-01-2.58003E+01 2.91481E-01 6.96100E-02-7.04934E-01 6.92061E-02-1.88748E-02 7.01254E-01 4.85389E+01-2.17159E+01-1.84618E+01



 n o d a l   p r i n t   o u t   f o r   t i m e  s t e p   19202                              ( at time 9.5995393E+00 )

 nodal point  x-rot      y-rot       z-rot       x-rot vel   y-rot vel   z-rot vel   x-rot acc   y-rot acc   z-rot acc
    22626  2.04424E-02 2.65581E-02-6.53384E-03 1.18097E-02 1.01184E-02-3.15582E-03 4.10677E-03 4.78278E-04-6.13095E-04



 n o d a l   p r i n t   o u t   f o r   t i m e  s t e p   19402                              ( at time 9.6995293E+00 )

 nodal point  x-disp     y-disp      z-disp      x-vel       y-vel       z-vel      x-accl      y-accl      z-accl      x-coor      y-coor      z-coor
    22626  6.04206E-01 3.20697E-01-2.58674E+01 2.97950E-01 6.74839E-02-6.36853E-01 6.46949E-02-2.12628E-02 6.80879E-01 4.85684E+01-2.17091E+01-1.85289E+01



 n o d a l   p r i n t   o u t   f o r   t i m e  s t e p   19402                              ( at time 9.6995293E+00 )

 nodal point  x-rot      y-rot       z-rot       x-rot vel   y-rot vel   z-rot vel   x-rot acc   y-rot acc   z-rot acc
    22626  2.16442E-02 2.75729E-02-6.85135E-03 1.22281E-02 1.01709E-02-3.19669E-03 4.18433E-03 5.25319E-04-4.08713E-04



 n o d a l   p r i n t   o u t   f o r   t i m e  s t e p   19602                              ( at time 9.7995193E+00 )

 nodal point  x-disp     y-disp      z-disp      x-vel       y-vel       z-vel      x-accl      y-accl      z-accl      x-coor      y-coor      z-coor
    22626  6.34379E-01 3.27277E-01-2.59277E+01 3.05904E-01 6.50595E-02-5.70534E-01 7.95501E-02-2.42465E-02 6.63255E-01 4.85986E+01-2.17025E+01-1.85892E+01



 n o d a l   p r i n t   o u t   f o r   t i m e  s t e p   19602                              ( at time 9.7995193E+00 )

 nodal point  x-rot      y-rot       z-rot       x-rot vel   y-rot vel   z-rot vel   x-rot acc   y-rot acc   z-rot acc
    22626  2.28836E-02 2.85943E-02-7.17318E-03 1.25795E-02 1.02564E-02-3.23390E-03 3.51383E-03 8.55292E-04-3.72080E-04



 n o d a l   p r i n t   o u t   f o r   t i m e  s t e p   19802                              ( at time 9.8995093E+00 )

 nodal point  x-disp     y-disp      z-disp      x-vel       y-vel       z-vel      x-accl      y-accl      z-accl      x-coor      y-coor      z-coor
    22626  6.65362E-01 3.33637E-01-2.59816E+01 3.13139E-01 6.25844E-02-5.05430E-01 7.23599E-02-2.47536E-02 6.51103E-01 4.86295E+01-2.16962E+01-1.86431E+01



 n o d a l   p r i n t   o u t   f o r   t i m e  s t e p   19802                              ( at time 9.8995093E+00 )

 nodal point  x-rot      y-rot       z-rot       x-rot vel   y-rot vel   z-rot vel   x-rot acc   y-rot acc   z-rot acc
    22626  2.41623E-02 2.96212E-02-7.49891E-03 1.29686E-02 1.03343E-02-3.26377E-03 3.89117E-03 7.78515E-04-2.98796E-04



 n o d a l   p r i n t   o u t   f o r   t i m e  s t e p   20003                              ( at time 9.9999992E+00 )

 nodal point  x-disp     y-disp      z-disp      x-vel       y-vel       z-vel      x-accl      y-accl      z-accl      x-coor      y-coor      z-coor
[...]
    22626  2.55845E-01 1.53241E-01-7.02592E-02 1.77992E-02 8.00422E-03-6.01204E-03-2.86259E-04-5.70022E-05 3.31004E-04



 n o d a l   p r i n t   o u t   f o r   t i m e  s t e p   45205                              ( at time 2.2599738E+01 )

 nodal point  x-disp     y-disp      z-disp      x-vel       y-vel       z-vel      x-accl      y-accl      z-accl      x-coor      y-coor      z-coor
    22626  4.66573E+00 8.23083E-01-2.04890E+01 2.76198E-01-8.15598E-02 4.46973E-01 1.70190E-02-2.71955E-02-9.94863E-03 5.26299E+01-2.12067E+01-1.31505E+01



 n o d a l   p r i n t   o u t   f o r   t i m e  s t e p   45205                              ( at time 2.2599738E+01 )

 nodal point  x-rot      y-rot       z-rot       x-rot vel   y-rot vel   z-rot vel   x-rot acc   y-rot acc   z-rot acc
    22626  2.57625E-01 1.54041E-01-7.08584E-02 1.77926E-02 8.00388E-03-5.97434E-03-6.58692E-05-3.47415E-06 3.77118E-04



 n o d a l   p r i n t   o u t   f o r   t i m e  s t e p   45405                              ( at time 2.2699728E+01 )

 nodal point  x-disp     y-disp      z-disp      x-vel       y-vel       z-vel      x-accl      y-accl      z-accl      x-coor      y-coor      z-coor
    22626  4.69344E+00 8.14817E-01-2.04443E+01 2.77834E-01-8.37593E-02 4.46326E-01 1.63663E-02-2.19976E-02-6.47676E-03 5.26576E+01-2.12150E+01-1.31058E+01



 n o d a l   p r i n t   o u t   f o r   t i m e  s t e p   45405                              ( at time 2.2699728E+01 )

 nodal point  x-rot      y-rot       z-rot       x-rot vel   y-rot vel   z-rot vel   x-rot acc   y-rot acc   z-rot acc
    22626  2.59403E-01 1.54842E-01-7.14543E-02 1.77797E-02 8.00372E-03-5.94027E-03-1.29021E-04-1.52754E-06 3.40720E-04



 n o d a l   p r i n t   o u t   f o r   t i m e  s t e p   45605                              ( at time 2.2799718E+01 )

 nodal point  x-disp     y-disp      z-disp      x-vel       y-vel       z-vel      x-accl      y-accl      z-accl      x-coor      y-coor      z-coor
    22626  4.72128E+00 8.06358E-01-2.03998E+01 2.78894E-01-8.54634E-02 4.44297E-01 1.06002E-02-1.70419E-02-2.02931E-02 5.26855E+01-2.12234E+01-1.30613E+01



 n o d a l   p r i n t   o u t   f o r   t i m e  s t e p   45605                              ( at time 2.2799718E+01 )

 nodal point  x-rot      y-rot       z-rot       x-rot vel   y-rot vel   z-rot vel   x-rot acc   y-rot acc   z-rot acc
    22626  2.61180E-01 1.55642E-01-7.20461E-02 1.77607E-02 8.00700E-03-5.90254E-03-1.90827E-04 3.27856E-05 3.77281E-04



 n o d a l   p r i n t   o u t   f o r   t i m e  s t e p   45805                              ( at time 2.2899708E+01 )

 nodal point  x-disp     y-disp      z-disp      x-vel       y-vel       z-vel      x-accl      y-accl      z-accl      x-coor      y-coor      z-coor
    22626  4.74925E+00 7.97699E-01-2.03554E+01 2.80398E-01-8.79707E-02 4.43299E-01 1.50375E-02-2.50762E-02-9.98309E-03 5.27134E+01-2.12321E+01-1.30169E+01



 n o d a l   p r i n t   o u t   f o r   t i m e  s t e p   45805                              ( at time 2.2899708E+01 )

 nodal point  x-rot      y-rot       z-rot       x-rot vel   y-rot vel   z-rot vel   x-rot acc   y-rot acc   z-rot acc
    22626  2.62955E-01 1.56443E-01-7.26346E-02 1.77560E-02 8.00488E-03-5.86465E-03-4.69252E-05-2.11713E-05 3.78992E-04



 n o d a l   p r i n t   o u t   f o r   t i m e  s t e p   46005                              ( at time 2.2999698E+01 )

 nodal point  x-disp     y-disp      z-disp      x-vel       y-vel       z-vel      x-accl      y-accl      z-accl      x-coor      y-coor      z-coor
    22626  4.77737E+00 7.88839E-01-2.03112E+01 2.81969E-01-8.96176E-02 4.42343E-01 1.57183E-02-1.64700E-02-9.55669E-03 5.27416E+01-2.12410E+01-1.29727E+01



 n o d a l   p r i n t   o u t   f o r   t i m e  s t e p   46005                              ( at time 2.2999698E+01 )

 nodal point  x-rot      y-rot       z-rot       x-rot vel   y-rot vel   z-rot vel   x-rot acc   y-rot acc   z-rot acc
    22626  2.64732E-01 1.57243E-01-7.32201E-02 1.77656E-02 8.01390E-03-5.83764E-03 9.66243E-05 9.01230E-05 2.70146E-04



 n o d a l   p r i n t   o u t   f o r   t i m e  s t e p   46205                              ( at time 2.3099688E+01 )

 nodal point  x-disp     y-disp      z-disp      x-vel       y-vel       z-vel      x-accl      y-accl      z-accl      x-coor      y-coor      z-coor
    22626  4.80562E+00 7.79773E-01-2.02670E+01 2.83421E-01-9.13126E-02 4.40661E-01 1.45204E-02-1.69525E-02-1.68235E-02 5.27698E+01-2.12500E+01-1.29285E+01



 n o d a l   p r i n t   o u t   f o r   t i m e  s t e p   46205                              ( at time 2.3099688E+01 )

 nodal point  x-rot      y-rot       z-rot       x-rot vel   y-rot vel   z-rot vel   x-rot acc   y-rot acc   z-rot acc
    22626  2.66508E-01 1.58045E-01-7.38017E-02 1.77584E-02 8.01738E-03-5.79915E-03-7.22227E-05 3.48260E-05 3.84935E-04



 n o d a l   p r i n t   o u t   f o r   t i m e  s t e p   46405                              ( at time 2.3199678E+01 )

 nodal point  x-disp     y-disp      z-disp      x-vel       y-vel       z-vel      x-accl      y-accl      z-accl      x-coor      y-coor      z-coor
    22626  4.83400E+00 7.70548E-01-2.02230E+01 2.84264E-01-9.30728E-02 4.39211E-01 8.43006E-03-1.76036E-02-1.45019E-02 5.27982E+01-2.12592E+01-1.28845E+01



 n o d a l   p r i n t   o u t   f o r   t i m e  s t e p   46405                              ( at time 2.3199678E+01 )

 nodal point  x-rot      y-rot       z-rot       x-rot vel   y-rot vel   z-rot vel   x-rot acc   y-rot acc   z-rot acc
    22626  2.68284E-01 1.58846E-01-7.43799E-02 1.77717E-02 8.01381E-03-5.76547E-03 1.33191E-04-3.56450E-05 3.36778E-04



 n o d a l   p r i n t   o u t   f o r   t i m e  s t e p   46605                              ( at time 2.3299668E+01 )

 nodal point  x-disp     y-disp      z-disp      x-vel       y-vel       z-vel      x-accl      y-accl      z-accl      x-coor      y-coor      z-coor
    22626  4.86249E+00 7.61200E-01-2.01792E+01 2.85574E-01-9.39729E-02 4.38121E-01 1.31020E-02-9.00159E-03-1.08960E-02 5.28267E+01-2.12686E+01-1.28407E+01



 n o d a l   p r i n t   o u t   f o r   t i m e  s t e p   46605                              ( at time 2.3299668E+01 )

 nodal point  x-rot      y-rot       z-rot       x-rot vel   y-rot vel   z-rot vel   x-rot acc   y-rot acc   z-rot acc
    22626  2.70062E-01 1.59648E-01-7.49549E-02 1.77858E-02 8.02148E-03-5.72989E-03 1.40906E-04 7.66843E-05 3.55828E-04



 n o d a l   p r i n t   o u t   f o r   t i m e  s t e p   46805                              ( at time 2.3399658E+01 )

 nodal point  x-disp     y-disp      z-disp      x-vel       y-vel       z-vel      x-accl      y-accl      z-accl      x-coor      y-coor      z-coor
    22626  4.89109E+00 7.51704E-01-2.01354E+01 2.86636E-01-9.58910E-02 4.36290E-01 1.06151E-02-1.91830E-02-1.83125E-02 5.28553E+01-2.12781E+01-1.27969E+01



 n o d a l   p r i n t   o u t   f o r   t i m e  s t e p   46805                              ( at time 2.3399658E+01 )

 nodal point  x-rot      y-rot       z-rot       x-rot vel   y-rot vel   z-rot vel   x-rot acc   y-rot acc   z-rot acc
    22626  2.71840E-01 1.60450E-01-7.55261E-02 1.77891E-02 8.02014E-03-5.69887E-03 3.25806E-05-1.33843E-05 3.10252E-04



 n o d a l   p r i n t   o u t   f o r   t i m e  s t e p   47005                              ( at time 2.3499648E+01 )

 nodal point  x-disp     y-disp      z-disp      x-vel       y-vel       z-vel      x-accl      y-accl      z-accl      x-coor      y-coor      z-coor
    22626  4.91981E+00 7.42049E-01-2.00919E+01 2.87748E-01-9.71555E-02 4.34396E-01 1.11235E-02-1.26466E-02-1.89429E-02 5.28840E+01-2.12877E+01-1.27534E+01



 n o d a l   p r i n t   o u t   f o r   t i m e  s t e p   47005                              ( at time 2.3499648E+01 )

 nodal point  x-rot      y-rot       z-rot       x-rot vel   y-rot vel   z-rot vel   x-rot acc   y-rot acc   z-rot acc
    22626  2.73620E-01 1.61252E-01-7.60945E-02 1.78034E-02 8.01498E-03-5.66761E-03 1.43716E-04-5.16000E-05 3.12590E-04



 n o d a l   p r i n t   o u t   f o r   t i m e  s t e p   47205                              ( at time 2.3599638E+01 )

 nodal point  x-disp     y-disp      z-disp      x-vel       y-vel       z-vel      x-accl      y-accl      z-accl      x-coor      y-coor      z-coor
    22626  4.94862E+00 7.32329E-01-2.00485E+01 2.88285E-01-9.72615E-02 4.33317E-01 5.37664E-03-1.05922E-03-1.07956E-02 5.29128E+01-2.12975E+01-1.27100E+01



 n o d a l   p r i n t   o u t   f o r   t i m e  s t e p   47205                              ( at time 2.3599638E+01 )

 nodal point  x-rot      y-rot       z-rot       x-rot vel   y-rot vel   z-rot vel   x-rot acc   y-rot acc   z-rot acc
    22626  2.75401E-01 1.62053E-01-7.66595E-02 1.78237E-02 8.01506E-03-5.63874E-03 2.03032E-04 7.45140E-07 2.88723E-04



 n o d a l   p r i n t   o u t   f o r   t i m e  s t e p   47405                              ( at time 2.3699628E+01 )

 nodal point  x-disp     y-disp      z-disp      x-vel       y-vel       z-vel      x-accl      y-accl      z-accl      x-coor      y-coor      z-coor
    22626  4.97750E+00 7.22582E-01-2.00053E+01 2.89200E-01-9.76168E-02 4.31518E-01 9.14598E-03-3.55410E-03-1.79888E-02 5.29417E+01-2.13072E+01-1.26668E+01



 n o d a l   p r i n t   o u t   f o r   t i m e  s t e p   47405                              ( at time 2.3699628E+01 )

 nodal point  x-rot      y-rot       z-rot       x-rot vel   y-rot vel   z-rot vel   x-rot acc   y-rot acc   z-rot acc
    22626  2.77183E-01 1.62855E-01-7.72214E-02 1.78303E-02 8.01603E-03-5.60539E-03 6.52544E-05 9.68664E-06 3.33560E-04



 n o d a l   p r i n t   o u t   f o r   t i m e  s t e p   47605                              ( at time 2.3799618E+01 )

 nodal point  x-disp     y-disp      z-disp      x-vel       y-vel       z-vel      x-accl      y-accl      z-accl      x-coor      y-coor      z-coor
    22626  5.00645E+00 7.12761E-01-1.99623E+01 2.89905E-01-9.86390E-02 4.29132E-01 7.04664E-03-1.02230E-02-2.38645E-02 5.29706E+01-2.13170E+01-1.26238E+01



 n o d a l   p r i n t   o u t   f o r   t i m e  s t e p   47605                              ( at time 2.3799618E+01 )

 nodal point  x-rot      y-rot       z-rot       x-rot vel   y-rot vel   z-rot vel   x-rot acc   y-rot acc   z-rot acc
    22626  2.78967E-01 1.63656E-01-7.77804E-02 1.78424E-02 8.00525E-03-5.57870E-03 1.21253E-04-1.07775E-04 2.66979E-04



 n o d a l   p r i n t   o u t   f o r   t i m e  s t e p   47805                              ( at time 2.3899608E+01 )

 nodal point  x-disp     y-disp      z-disp      x-vel       y-vel       z-vel      x-accl      y-accl      z-accl      x-coor      y-coor      z-coor
    22626  5.03547E+00 7.02919E-01-1.99194E+01 2.90523E-01-9.80539E-02 4.27488E-01 6.18306E-03 5.85140E-03-1.64354E-02 5.29996E+01-2.13269E+01-1.25809E+01



 n o d a l   p r i n t   o u t   f o r   t i m e  s t e p   47805                              ( at time 2.3899608E+01 )

 nodal point  x-rot      y-rot       z-rot       x-rot vel   y-rot vel   z-rot vel   x-rot acc   y-rot acc   z-rot acc
    22626  2.80753E-01 1.64456E-01-7.83372E-02 1.78704E-02 8.00600E-03-5.55741E-03 2.79702E-04 7.49783E-06 2.12878E-04



 n o d a l   p r i n t   o u t   f o r   t i m e  s t e p   48005                              ( at time 2.3999598E+01 )

 nodal point  x-disp     y-disp      z-disp      x-vel       y-vel       z-vel      x-accl      y-accl      z-accl      x-coor      y-coor      z-coor
    22626  5.06454E+00 6.93111E-01-1.98768E+01 2.90854E-01-9.81894E-02 4.25520E-01 3.31319E-03-1.35504E-03-1.96899E-02 5.30287E+01-2.13367E+01-1.25383E+01



 n o d a l   p r i n t   o u t   f o r   t i m e  s t e p   48005                              ( at time 2.3999598E+01 )

 nodal point  x-rot      y-rot       z-rot       x-rot vel   y-rot vel   z-rot vel   x-rot acc   y-rot acc   z-rot acc
    22626  2.82541E-01 1.65257E-01-7.88911E-02 1.78972E-02 8.00507E-03-5.52657E-03 2.68344E-04-9.34220E-06 3.08418E-04



 n o d a l   p r i n t   o u t   f o r   t i m e  s t e p   48205                              ( at time 2.4099588E+01 )

 nodal point  x-disp     y-disp      z-disp      x-vel       y-vel       z-vel      x-accl      y-accl      z-accl      x-coor      y-coor      z-coor
    22626  5.09365E+00 6.83295E-01-1.98344E+01 2.91489E-01-9.78811E-02 4.23182E-01 6.34937E-03 3.08333E-03-2.33725E-02 5.30578E+01-2.13465E+01-1.24959E+01



 n o d a l   p r i n t   o u t   f o r   t i m e  s t e p   48205                              ( at time 2.4099588E+01 )

 nodal point  x-rot      y-rot       z-rot       x-rot vel   y-rot vel   z-rot vel   x-rot acc   y-rot acc   z-rot acc
    22626  2.84331E-01 1.66057E-01-7.94426E-02 1.79126E-02 7.99087E-03-5.50336E-03 1.53869E-04-1.41984E-04 2.32111E-04



 n o d a l   p r i n t   o u t   f o r   t i m e  s t e p   48405                              ( at time 2.4199578E+01 )

 nodal point  x-disp     y-disp      z-disp      x-vel       y-vel       z-vel      x-accl      y-accl      z-accl      x-coor      y-coor      z-coor
    22626  5.12280E+00 6.73549E-01-1.97922E+01 2.91370E-01-9.69918E-02 4.20909E-01-1.18507E-03 8.89400E-03-2.27381E-02 5.30870E+01-2.13562E+01-1.24537E+01



 n o d a l   p r i n t   o u t   f o r   t i m e  s t e p   48405                              ( at time 2.4199578E+01 )

 nodal point  x-rot      y-rot       z-rot       x-rot vel   y-rot vel   z-rot vel   x-rot acc   y-rot acc   z-rot acc
    22626  2.86123E-01 1.66855E-01-7.99918E-02 1.79389E-02 7.98527E-03-5.48482E-03 2.63556E-04-5.60346E-05 1.85433E-04



 n o d a l   p r i n t   o u t   f o r   t i m e  s t e p   48605                              ( at time 2.4299568E+01 )

 nodal point  x-disp     y-disp      z-disp      x-vel       y-vel       z-vel      x-accl      y-accl      z-accl      x-coor      y-coor      z-coor
    22626  5.15193E+00 6.63894E-01-1.97502E+01 2.91696E-01-9.61729E-02 4.19122E-01 3.25441E-03 8.18998E-03-1.78741E-02 5.31161E+01-2.13659E+01-1.24117E+01



 n o d a l   p r i n t   o u t   f o r   t i m e  s t e p   48605                              ( at time 2.4299568E+01 )

 nodal point  x-rot      y-rot       z-rot       x-rot vel   y-rot vel   z-rot vel   x-rot acc   y-rot acc   z-rot acc
    22626  2.87919E-01 1.67653E-01-8.05393E-02 1.79673E-02 7.98259E-03-5.46293E-03 2.84098E-04-2.67500E-05 2.18988E-04



 n o d a l   p r i n t   o u t   f o r   t i m e  s t e p   48805                              ( at time 2.4399558E+01 )

 nodal point  x-disp     y-disp      z-disp      x-vel       y-vel       z-vel      x-accl      y-accl      z-accl      x-coor      y-coor      z-coor
    22626  5.18110E+00 6.54318E-01-1.97084E+01 2.91642E-01-9.54058E-02 4.16211E-01-5.35001E-04 7.67167E-03-2.91070E-02 5.31453E+01-2.13755E+01-1.23699E+01



 n o d a l   p r i n t   o u t   f o r   t i m e  s t e p   48805                              ( at time 2.4399558E+01 )

 nodal point  x-rot      y-rot       z-rot       x-rot vel   y-rot vel   z-rot vel   x-rot acc   y-rot acc   z-rot acc
    22626  2.89716E-01 1.68451E-01-8.10845E-02 1.79903E-02 7.96256E-03-5.44425E-03 2.30170E-04-2.00318E-04 1.86798E-04



 n o d a l   p r i n t   o u t   f o r   t i m e  s t e p   49006                              ( at time 2.4500048E+01 )

 nodal point  x-disp     y-disp      z-disp      x-vel       y-vel       z-vel      x-accl      y-accl      z-accl      x-coor      y-coor      z-coor
    22626  5.21040E+00 6.44803E-01-1.96667E+01 2.91512E-01-9.38270E-02 4.14290E-01-1.29603E-03 1.57113E-02-1.91148E-02 5.31746E+01-2.13850E+01-1.23282E+01



 n o d a l   p r i n t   o u t   f o r   t i m e  s t e p   49006                              ( at time 2.4500048E+01 )

 nodal point  x-rot      y-rot       z-rot       x-rot vel   y-rot vel   z-rot vel   x-rot acc   y-rot acc   z-rot acc
    22626  2.91525E-01 1.69251E-01-8.16307E-02 1.80085E-02 7.95570E-03-5.42972E-03 1.80484E-04-6.82398E-05 1.44603E-04



 n o d a l   p r i n t   o u t   f o r   t i m e  s t e p   49206                              ( at time 2.4600038E+01 )

 nodal point  x-disp     y-disp      z-disp      x-vel       y-vel       z-vel      x-accl      y-accl      z-accl      x-coor      y-coor      z-coor
    22626  5.23954E+00 6.35496E-01-1.96253E+01 2.91169E-01-9.23021E-02 4.12399E-01-3.42847E-03 1.52505E-02-1.89131E-02 5.32037E+01-2.13943E+01-1.22868E+01



 n o d a l   p r i n t   o u t   f o r   t i m e  s t e p   49206                              ( at time 2.4600038E+01 )

 nodal point  x-rot      y-rot       z-rot       x-rot vel   y-rot vel   z-rot vel   x-rot acc   y-rot acc   z-rot acc
    22626  2.93326E-01 1.70046E-01-8.21722E-02 1.80277E-02 7.94964E-03-5.40789E-03 1.92354E-04-6.06347E-05 2.18289E-04



 n o d a l   p r i n t   o u t   f o r   t i m e  s t e p   49406                              ( at time 2.4700028E+01 )

 nodal point  x-disp     y-disp      z-disp      x-vel       y-vel       z-vel      x-accl      y-accl      z-accl      x-coor      y-coor      z-coor
    22626  5.26866E+00 6.26331E-01-1.95842E+01 2.91074E-01-9.11784E-02 4.10259E-01-9.51693E-04 1.12378E-02-2.14088E-02 5.32328E+01-2.14035E+01-1.22457E+01



 n o d a l   p r i n t   o u t   f o r   t i m e  s t e p   49406                              ( at time 2.4700028E+01 )

 nodal point  x-rot      y-rot       z-rot       x-rot vel   y-rot vel   z-rot vel   x-rot acc   y-rot acc   z-rot acc
    22626  2.95131E-01 1.70840E-01-8.27122E-02 1.80497E-02 7.93986E-03-5.39348E-03 2.19928E-04-9.78276E-05 1.44129E-04



 n o d a l   p r i n t   o u t   f o r   t i m e  s t e p   49606                              ( at time 2.4800018E+01 )

 nodal point  x-disp     y-disp      z-disp      x-vel       y-vel       z-vel      x-accl      y-accl      z-accl      x-coor      y-coor      z-coor
    22626  5.29774E+00 6.17281E-01-1.95433E+01 2.90637E-01-8.95447E-02 4.07495E-01-4.37419E-03 1.63390E-02-2.76373E-02 5.32619E+01-2.14125E+01-1.22048E+01



 n o d a l   p r i n t   o u t   f o r   t i m e  s t e p   49606                              ( at time 2.4800018E+01 )

 nodal point  x-rot      y-rot       z-rot       x-rot vel   y-rot vel   z-rot vel   x-rot acc   y-rot acc   z-rot acc
    22626  2.96936E-01 1.71634E-01-8.32508E-02 1.80687E-02 7.92854E-03-5.37642E-03 1.89579E-04-1.13213E-04 1.70601E-04



 n o d a l   p r i n t   o u t   f o r   t i m e  s t e p   49806                              ( at time 2.4900008E+01 )

 nodal point  x-disp     y-disp      z-disp      x-vel       y-vel       z-vel      x-accl      y-accl      z-accl      x-coor      y-coor      z-coor
    22626  5.32677E+00 6.08432E-01-1.95027E+01 2.90065E-01-8.74544E-02 4.05622E-01-5.72268E-03 2.09054E-02-1.87337E-02 5.32910E+01-2.14214E+01-1.21642E+01



 n o d a l   p r i n t   o u t   f o r   t i m e  s t e p   49806                              ( at time 2.4900008E+01 )

 nodal point  x-rot      y-rot       z-rot       x-rot vel   y-rot vel   z-rot vel   x-rot acc   y-rot acc   z-rot acc
    22626  2.98744E-01 1.72426E-01-8.37874E-02 1.80936E-02 7.91909E-03-5.35750E-03 2.49641E-04-9.45304E-05 1.89214E-04



 n o d a l   p r i n t   o u t   f o r   t i m e  s t e p   50006                              ( at time 2.4999998E+01 )

 nodal point  x-disp     y-disp      z-disp      x-vel       y-vel       z-vel      x-accl      y-accl      z-accl      x-coor      y-coor      z-coor
    22626  5.35576E+00 5.99762E-01-1.94623E+01 2.89556E-01-8.59446E-02 4.02918E-01-5.08474E-03 1.50994E-02-2.70406E-02 5.33199E+01-2.14300E+01-1.21238E+01



 n o d a l   p r i n t   o u t   f o r   t i m e  s t e p   50006                              ( at time 2.4999998E+01 )

 nodal point  x-rot      y-rot       z-rot       x-rot vel   y-rot vel   z-rot vel   x-rot acc   y-rot acc   z-rot acc
    22626  3.00554E-01 1.73217E-01-8.43227E-02 1.81177E-02 7.90880E-03-5.34425E-03 2.40881E-04-1.02893E-04 1.32539E-04
