 LSTC 50th% Full_FE H-III Dummy (Beta Version, February 17, 2019)        
                    ls-dyna smp s R16 R16.0_619_d222963 date 03/18/2025

{BEGIN LEGEND}
 Entity #        Title
    22626                                                                                     
{END LEGEND}




 n o d a l   p r i n t   o u t   f o r   t i m e  s t e p       1                              ( at time 0.0000000E+00 )

 nodal point  x-disp     y-disp      z-disp      x-vel       y-vel       z-vel      x-accl      y-accl      z-accl      x-coor      y-coor      z-coor
    22626  0.00000E+00 0.00000E+00 0.00000E+00 0.00000E+00 0.00000E+00 0.00000E+00 0.00000E+00 0.00000E+00 0.00000E+00 4.65938E+00-2.81908E+01-4.49817E+01



 n o d a l   p r i n t   o u t   f o r   t i m e  s t e p       1                              ( at time 0.0000000E+00 )

 nodal point  x-rot      y-rot       z-rot       x-rot vel   y-rot vel   z-rot vel   x-rot acc   y-rot acc   z-rot acc
    22626  0.00000E+00 0.00000E+00 0.00000E+00 0.00000E+00 0.00000E+00 0.00000E+00 0.00000E+00 0.00000E+00 0.00000E+00



 n o d a l   p r i n t   o u t   f o r   t i m e  s t e p     201                              ( at time 9.9989993E-02 )

 nodal point  x-disp     y-disp      z-disp      x-vel       y-vel       z-vel      x-accl      y-accl      z-accl      x-coor      y-coor      z-coor
    22626  2.73571E-07 1.73553E-06-5.34265E-05 4.19732E-05 2.55493E-04-1.46806E-03 4.19774E-04 2.55518E-03-1.46821E-02 4.65938E+00-2.81908E+01-4.49818E+01



 n o d a l   p r i n t   o u t   f o r   t i m e  s t e p     201                              ( at time 9.9989993E-02 )

 nodal point  x-rot      y-rot       z-rot       x-rot vel   y-rot vel   z-rot vel   x-rot acc   y-rot acc   z-rot acc
    22626 -5.99246E-08-8.38625E-09-5.46098E-09-5.87086E-06-9.69997E-07-9.27243E-07-5.87145E-05-9.70094E-06-9.27336E-06



 n o d a l   p r i n t   o u t   f o r   t i m e  s t e p     401                              ( at time 1.9997999E-01 )

 nodal point  x-disp     y-disp      z-disp      x-vel       y-vel       z-vel      x-accl      y-accl      z-accl      x-coor      y-coor      z-coor
    22626  1.73019E-05 3.61694E-04-6.67531E-04 3.04839E-05 7.80979E-03-1.21520E-02-1.14904E-04 7.55505E-02-1.06850E-01 4.65939E+00-2.81905E+01-4.49824E+01



 n o d a l   p r i n t   o u t   f o r   t i m e  s t e p     401                              ( at time 1.9997999E-01 )

 nodal point  x-rot      y-rot       z-rot       x-rot vel   y-rot vel   z-rot vel   x-rot acc   y-rot acc   z-rot acc
    22626 -2.82096E-06-3.37046E-07-3.34472E-07-3.94281E-05-1.77023E-06-2.29472E-06-3.35606E-04-8.00309E-06-1.36761E-05



 n o d a l   p r i n t   o u t   f o r   t i m e  s t e p     601                              ( at time 2.9996998E-01 )

 nodal point  x-disp     y-disp      z-disp      x-vel       y-vel       z-vel      x-accl      y-accl      z-accl      x-coor      y-coor      z-coor
    22626  2.73966E-05 1.23954E-03-2.33769E-03 4.19635E-04 8.43937E-03-1.92409E-02 3.89190E-03 6.29644E-03-7.08963E-02 4.65940E+00-2.81896E+01-4.49841E+01



 n o d a l   p r i n t   o u t   f o r   t i m e  s t e p     601                              ( at time 2.9996998E-01 )

 nodal point  x-rot      y-rot       z-rot       x-rot vel   y-rot vel   z-rot vel   x-rot acc   y-rot acc   z-rot acc
    22626 -5.39459E-06-3.90330E-07-6.42430E-07-1.56225E-05-5.49667E-06-6.65039E-06 2.38079E-04-3.72682E-05-4.35611E-05



 n o d a l   p r i n t   o u t   f o r   t i m e  s t e p     801                              ( at time 3.9995997E-01 )

 nodal point  x-disp     y-disp      z-disp      x-vel       y-vel       z-vel      x-accl      y-accl      z-accl      x-coor      y-coor      z-coor
    22626  2.60330E-05 2.16092E-03-4.28048E-03-3.14123E-04 1.07363E-02-2.10660E-02-7.33831E-03 2.29718E-02-1.82521E-02 4.65940E+00-2.81887E+01-4.49860E+01



 n o d a l   p r i n t   o u t   f o r   t i m e  s t e p     801                              ( at time 3.9995997E-01 )

 nodal point  x-rot      y-rot       z-rot       x-rot vel   y-rot vel   z-rot vel   x-rot acc   y-rot acc   z-rot acc
    22626 -7.63595E-06-1.25122E-06-9.83228E-07-4.49373E-05-6.22471E-06-1.56830E-06-2.93177E-04-7.28117E-06 5.08260E-05



 n o d a l   p r i n t   o u t   f o r   t i m e  s t e p    1001                              ( at time 4.9994997E-01 )

 nodal point  x-disp     y-disp      z-disp      x-vel       y-vel       z-vel      x-accl      y-accl      z-accl      x-coor      y-coor      z-coor
    22626  4.00592E-06 3.43393E-03-6.73897E-03-2.37168E-04 1.41169E-02-2.86489E-02 7.69631E-04 3.38092E-02-7.58374E-02 4.65938E+00-2.81874E+01-4.49885E+01



 n o d a l   p r i n t   o u t   f o r   t i m e  s t e p    1001                              ( at time 4.9994997E-01 )

 nodal point  x-rot      y-rot       z-rot       x-rot vel   y-rot vel   z-rot vel   x-rot acc   y-rot acc   z-rot acc
    22626 -1.35984E-05-1.16926E-06-9.53950E-07-8.46809E-05 3.24924E-06 4.12526E-06-3.97476E-04 9.47490E-05 5.69413E-05



 n o d a l   p r i n t   o u t   f o r   t i m e  s t e p    1201                              ( at time 5.9993996E-01 )

 nodal point  x-disp     y-disp      z-disp      x-vel       y-vel       z-vel      x-accl      y-accl      z-accl      x-coor      y-coor      z-coor
    22626 -1.04689E-06 5.00035E-03-9.69758E-03 4.18550E-05 1.65328E-02-3.07836E-02 2.79051E-03 2.41614E-02-2.13492E-02 4.65937E+00-2.81858E+01-4.49914E+01



 n o d a l   p r i n t   o u t   f o r   t i m e  s t e p    1201                              ( at time 5.9993996E-01 )

 nodal point  x-rot      y-rot       z-rot       x-rot vel   y-rot vel   z-rot vel   x-rot acc   y-rot acc   z-rot acc
    22626 -2.04697E-05-8.90661E-07-9.70564E-07-6.13587E-05 3.68424E-06-2.35820E-06 2.33245E-04 4.35049E-06-6.48412E-05



 n o d a l   p r i n t   o u t   f o r   t i m e  s t e p    1401                              ( at time 6.9992995E-01 )

 nodal point  x-disp     y-disp      z-disp      x-vel       y-vel       z-vel      x-accl      y-accl      z-accl      x-coor      y-coor      z-coor
    22626 -5.00610E-05 6.81596E-03-1.31212E-02-4.68700E-04 1.93756E-02-3.85137E-02-5.10606E-03 2.84309E-02-7.73086E-02 4.65933E+00-2.81840E+01-4.49948E+01



 n o d a l   p r i n t   o u t   f o r   t i m e  s t e p    1401                              ( at time 6.9992995E-01 )

 nodal point  x-rot      y-rot       z-rot       x-rot vel   y-rot vel   z-rot vel   x-rot acc   y-rot acc   z-rot acc
    22626 -2.66947E-05-9.45802E-07-7.04240E-07-7.42744E-05-2.59386E-07 2.96091E-06-1.29170E-04-3.94402E-05 5.31965E-05



 n o d a l   p r i n t   o u t   f o r   t i m e  s t e p    1601                              ( at time 7.9991994E-01 )

 nodal point  x-disp     y-disp      z-disp      x-vel       y-vel       z-vel      x-accl      y-accl      z-accl      x-coor      y-coor      z-coor
    22626 -7.75752E-05 8.91576E-03-1.73524E-02-4.78326E-04 2.17171E-02-4.43235E-02-9.62665E-05 2.34176E-02-5.81034E-02 4.65930E+00-2.81819E+01-4.49991E+01



 n o d a l   p r i n t   o u t   f o r   t i m e  s t e p    1601                              ( at time 7.9991994E-01 )

 nodal point  x-rot      y-rot       z-rot       x-rot vel   y-rot vel   z-rot vel   x-rot acc   y-rot acc   z-rot acc
    22626 -3.53271E-05-9.83411E-07-7.10017E-07-9.78117E-05-5.64710E-06-8.63097E-08-2.35397E-04-5.38825E-05-3.04753E-05



 n o d a l   p r i n t   o u t   f o r   t i m e  s t e p    1801                              ( at time 8.9990994E-01 )

 nodal point  x-disp     y-disp      z-disp      x-vel       y-vel       z-vel      x-accl      y-accl      z-accl      x-coor      y-coor      z-coor
    22626 -1.12704E-04 1.11277E-02-2.17772E-02-2.73289E-04 2.33552E-02-4.43238E-02 2.05058E-03 1.63829E-02-3.35310E-06 4.65926E+00-2.81797E+01-4.50035E+01



 n o d a l   p r i n t   o u t   f o r   t i m e  s t e p    1801                              ( at time 8.9990994E-01 )

 nodal point  x-rot      y-rot       z-rot       x-rot vel   y-rot vel   z-rot vel   x-rot acc   y-rot acc   z-rot acc
    22626 -4.44714E-05-1.18921E-06-9.39832E-07-9.13313E-05 7.86043E-08-3.88313E-06 6.48113E-05 5.72628E-05-3.79720E-05



 n o d a l   p r i n t   o u t   f o r   t i m e  s t e p    2001                              ( at time 9.9989993E-01 )

 nodal point  x-disp     y-disp      z-disp      x-vel       y-vel       z-vel      x-accl      y-accl      z-accl      x-coor      y-coor      z-coor
    22626 -1.44474E-04 1.35797E-02-2.63590E-02 3.36679E-05 2.54772E-02-4.81124E-02 3.06987E-03 2.12219E-02-3.78896E-02 4.65923E+00-2.81772E+01-4.50081E+01



 n o d a l   p r i n t   o u t   f o r   t i m e  s t e p    2001                              ( at time 9.9989993E-01 )

 nodal point  x-rot      y-rot       z-rot       x-rot vel   y-rot vel   z-rot vel   x-rot acc   y-rot acc   z-rot acc
    22626 -5.45855E-05-1.37195E-06-1.27504E-06-1.17955E-04-1.84870E-06-8.17068E-06-2.66263E-04-1.92750E-05-4.28798E-05



 n o d a l   p r i n t   o u t   f o r   t i m e  s t e p    2201                              ( at time 1.0998899E+00 )

 nodal point  x-disp     y-disp      z-disp      x-vel       y-vel       z-vel      x-accl      y-accl      z-accl      x-coor      y-coor      z-coor
    22626 -1.41527E-04 1.62048E-02-3.14554E-02-1.85080E-04 2.75882E-02-5.34566E-02-2.18770E-03 2.11119E-02-5.34470E-02 4.65923E+00-2.81746E+01-4.50132E+01



 n o d a l   p r i n t   o u t   f o r   t i m e  s t e p    2201                              ( at time 1.0998899E+00 )

 nodal point  x-rot      y-rot       z-rot       x-rot vel   y-rot vel   z-rot vel   x-rot acc   y-rot acc   z-rot acc
    22626 -6.70555E-05-1.94414E-06-2.24465E-06-1.18621E-04-1.43767E-05-1.00771E-05-6.66014E-06-1.25293E-04-1.90658E-05



 n o d a l   p r i n t   o u t   f o r   t i m e  s t e p    2401                              ( at time 1.1998799E+00 )

 nodal point  x-disp     y-disp      z-disp      x-vel       y-vel       z-vel      x-accl      y-accl      z-accl      x-coor      y-coor      z-coor
    22626 -1.42858E-04 1.89983E-02-3.70337E-02 1.64217E-04 2.84025E-02-5.77087E-02 3.49332E-03 8.14393E-03-4.25253E-02 4.65923E+00-2.81718E+01-4.50188E+01



 n o d a l   p r i n t   o u t   f o r   t i m e  s t e p    2401                              ( at time 1.1998799E+00 )

 nodal point  x-rot      y-rot       z-rot       x-rot vel   y-rot vel   z-rot vel   x-rot acc   y-rot acc   z-rot acc
    22626 -7.89394E-05-3.41757E-06-3.43854E-06-1.23888E-04-1.69091E-05-1.36801E-05-5.26728E-05-2.53263E-05-3.60337E-05



 n o d a l   p r i n t   o u t   f o r   t i m e  s t e p    2601                              ( at time 1.2998699E+00 )

 nodal point  x-disp     y-disp      z-disp      x-vel       y-vel       z-vel      x-accl      y-accl      z-accl      x-coor      y-coor      z-coor
    22626 -1.44595E-04 2.19436E-02-4.29066E-02 5.36278E-05 3.03315E-02-5.95410E-02-1.10600E-03 1.92918E-02-1.83253E-02 4.65923E+00-2.81689E+01-4.50246E+01



 n o d a l   p r i n t   o u t   f o r   t i m e  s t e p    2601                              ( at time 1.2998699E+00 )

 nodal point  x-rot      y-rot       z-rot       x-rot vel   y-rot vel   z-rot vel   x-rot acc   y-rot acc   z-rot acc
    22626 -9.25072E-05-4.96567E-06-4.84144E-06-1.56337E-04-1.05689E-05-1.48981E-05-3.24529E-04 6.34080E-05-1.21820E-05



 n o d a l   p r i n t   o u t   f o r   t i m e  s t e p    2801                              ( at time 1.3998599E+00 )

 nodal point  x-disp     y-disp      z-disp      x-vel       y-vel       z-vel      x-accl      y-accl      z-accl      x-coor      y-coor      z-coor
    22626 -1.41902E-04 2.50590E-02-4.88901E-02-1.52883E-04 3.16644E-02-6.07653E-02-2.06531E-03 1.33301E-02-1.22439E-02 4.65923E+00-2.81658E+01-4.50306E+01



 n o d a l   p r i n t   o u t   f o r   t i m e  s t e p    2801                              ( at time 1.3998599E+00 )

 nodal point  x-rot      y-rot       z-rot       x-rot vel   y-rot vel   z-rot vel   x-rot acc   y-rot acc   z-rot acc
    22626 -1.08861E-04-5.86141E-06-6.32963E-06-1.71392E-04-1.19726E-05-1.49472E-05-1.50565E-04-1.40383E-05-4.90630E-07



 n o d a l   p r i n t   o u t   f o r   t i m e  s t e p    3001                              ( at time 1.4998499E+00 )

 nodal point  x-disp     y-disp      z-disp      x-vel       y-vel       z-vel      x-accl      y-accl      z-accl      x-coor      y-coor      z-coor
    22626 -1.46865E-04 2.83194E-02-5.52302E-02 1.00199E-04 3.33785E-02-6.64540E-02 2.53107E-03 1.71434E-02-5.68929E-02 4.65923E+00-2.81625E+01-4.50369E+01



 n o d a l   p r i n t   o u t   f o r   t i m e  s t e p    3001                              ( at time 1.4998499E+00 )

 nodal point  x-rot      y-rot       z-rot       x-rot vel   y-rot vel   z-rot vel   x-rot acc   y-rot acc   z-rot acc
    22626 -1.26423E-04-7.46010E-06-8.16870E-06-1.75411E-04-1.84270E-05-2.25290E-05-4.01952E-05-6.45500E-05-7.58259E-05



 n o d a l   p r i n t   o u t   f o r   t i m e  s t e p    3201                              ( at time 1.5998399E+00 )

 nodal point  x-disp     y-disp      z-disp      x-vel       y-vel       z-vel      x-accl      y-accl      z-accl      x-coor      y-coor      z-coor
    22626 -1.54481E-04 3.17994E-02-6.21302E-02-4.53002E-05 3.61360E-02-7.07607E-02-1.45513E-03 2.75778E-02-4.30707E-02 4.65922E+00-2.81590E+01-4.50438E+01



 n o d a l   p r i n t   o u t   f o r   t i m e  s t e p    3201                              ( at time 1.5998399E+00 )

 nodal point  x-rot      y-rot       z-rot       x-rot vel   y-rot vel   z-rot vel   x-rot acc   y-rot acc   z-rot acc
    22626 -1.44123E-04-9.49948E-06-1.02229E-05-1.86764E-04-2.25333E-05-2.03861E-05-1.13540E-04-4.10669E-05 2.14311E-05



 n o d a l   p r i n t   o u t   f o r   t i m e  s t e p    3401                              ( at time 1.6998299E+00 )

 nodal point  x-disp     y-disp      z-disp      x-vel       y-vel       z-vel      x-accl      y-accl      z-accl      x-coor      y-coor      z-coor
    22626 -1.45092E-04 3.54783E-02-6.93465E-02 1.68534E-04 3.72081E-02-7.31396E-02 2.13855E-03 1.07217E-02-2.37916E-02 4.65923E+00-2.81554E+01-4.50511E+01



 n o d a l   p r i n t   o u t   f o r   t i m e  s t e p    3401                              ( at time 1.6998299E+00 )

 nodal point  x-rot      y-rot       z-rot       x-rot vel   y-rot vel   z-rot vel   x-rot acc   y-rot acc   z-rot acc
    22626 -1.64237E-04-1.15199E-05-1.25924E-05-2.09722E-04-2.13826E-05-2.65378E-05-2.29597E-04 1.15078E-05-6.15222E-05



 n o d a l   p r i n t   o u t   f o r   t i m e  s t e p    3601                              ( at time 1.7998199E+00 )

 nodal point  x-disp     y-disp      z-disp      x-vel       y-vel       z-vel      x-accl      y-accl      z-accl      x-coor      y-coor      z-coor
    22626 -1.50550E-04 3.92426E-02-7.67838E-02-3.28242E-04 3.83445E-02-7.55966E-02-4.96826E-03 1.13648E-02-2.45729E-02 4.65922E+00-2.81516E+01-4.50585E+01



 n o d a l   p r i n t   o u t   f o r   t i m e  s t e p    3601                              ( at time 1.7998199E+00 )

 nodal point  x-rot      y-rot       z-rot       x-rot vel   y-rot vel   z-rot vel   x-rot acc   y-rot acc   z-rot acc
    22626 -1.85548E-04-1.34365E-05-1.51938E-05-2.17572E-04-1.72140E-05-2.67578E-05-7.85103E-05 4.16901E-05-2.20065E-06



 n o d a l   p r i n t   o u t   f o r   t i m e  s t e p    3801                              ( at time 1.8998099E+00 )

 nodal point  x-disp     y-disp      z-disp      x-vel       y-vel       z-vel      x-accl      y-accl      z-accl      x-coor      y-coor      z-coor
    22626 -1.81727E-04 4.32001E-02-8.45156E-02-7.28354E-05 4.08731E-02-7.96177E-02 2.55432E-03 2.52891E-02-4.02149E-02 4.65919E+00-2.81476E+01-4.50662E+01



 n o d a l   p r i n t   o u t   f o r   t i m e  s t e p    3801                              ( at time 1.8998099E+00 )

 nodal point  x-rot      y-rot       z-rot       x-rot vel   y-rot vel   z-rot vel   x-rot acc   y-rot acc   z-rot acc
    22626 -2.06773E-04-1.52176E-05-1.79229E-05-2.16724E-04-2.42954E-05-3.18107E-05 8.48360E-06-7.08207E-05-5.05344E-05



 n o d a l   p r i n t   o u t   f o r   t i m e  s t e p    4001                              ( at time 1.9997999E+00 )

 nodal point  x-disp     y-disp      z-disp      x-vel       y-vel       z-vel      x-accl      y-accl      z-accl      x-coor      y-coor      z-coor
    22626 -1.69079E-04 4.73240E-02-9.27243E-02 5.50482E-04 4.17844E-02-8.41103E-02 6.23380E-03 9.11386E-03-4.49306E-02 4.65921E+00-2.81435E+01-4.50744E+01



 n o d a l   p r i n t   o u t   f o r   t i m e  s t e p    4001                              ( at time 1.9997999E+00 )

 nodal point  x-rot      y-rot       z-rot       x-rot vel   y-rot vel   z-rot vel   x-rot acc   y-rot acc   z-rot acc
    22626 -2.28424E-04-1.82496E-05-2.12063E-05-2.20013E-04-3.85342E-05-3.30981E-05-3.28921E-05-1.42403E-04-1.28751E-05



 n o d a l   p r i n t   o u t   f o r   t i m e  s t e p    4201                              ( at time 2.0997899E+00 )

 nodal point  x-disp     y-disp      z-disp      x-vel       y-vel       z-vel      x-accl      y-accl      z-accl      x-coor      y-coor      z-coor
    22626 -9.07447E-05 5.15148E-02-1.01237E-01 8.15873E-04 4.24542E-02-8.61423E-02 2.65417E-03 6.69874E-03-2.03215E-02 4.65928E+00-2.81393E+01-4.50830E+01



 n o d a l   p r i n t   o u t   f o r   t i m e  s t e p    4201                              ( at time 2.0997899E+00 )

 nodal point  x-rot      y-rot       z-rot       x-rot vel   y-rot vel   z-rot vel   x-rot acc   y-rot acc   z-rot acc
    22626 -2.50639E-04-2.23516E-05-2.46151E-05-2.22543E-04-4.44029E-05-3.46571E-05-2.53085E-05-5.86933E-05-1.55910E-05



 n o d a l   p r i n t   o u t   f o r   t i m e  s t e p    4401                              ( at time 2.1997798E+00 )

 nodal point  x-disp     y-disp      z-disp      x-vel       y-vel       z-vel      x-accl      y-accl      z-accl      x-coor      y-coor      z-coor
    22626  2.65259E-05 5.58131E-02-1.09928E-01 1.58126E-03 4.31290E-02-8.75929E-02 7.65463E-03 6.74867E-03-1.45080E-02 4.65940E+00-2.81350E+01-4.50916E+01



 n o d a l   p r i n t   o u t   f o r   t i m e  s t e p    4401                              ( at time 2.1997798E+00 )

 nodal point  x-rot      y-rot       z-rot       x-rot vel   y-rot vel   z-rot vel   x-rot acc   y-rot acc   z-rot acc
    22626 -2.73693E-04-2.69268E-05-2.81181E-05-2.37250E-04-4.74541E-05-3.53845E-05-1.47079E-04-3.05148E-05-7.27516E-06



 n o d a l   p r i n t   o u t   f o r   t i m e  s t e p    4601                              ( at time 2.2997698E+00 )

 nodal point  x-disp     y-disp      z-disp      x-vel       y-vel       z-vel      x-accl      y-accl      z-accl      x-coor      y-coor      z-coor
    22626  1.23058E-04 6.01346E-02-1.18784E-01 1.56292E-04 4.40186E-02-8.99065E-02-1.42511E-02 8.89661E-03-2.31384E-02 4.65950E+00-2.81307E+01-4.51005E+01



 n o d a l   p r i n t   o u t   f o r   t i m e  s t e p    4601                              ( at time 2.2997698E+00 )

 nodal point  x-rot      y-rot       z-rot       x-rot vel   y-rot vel   z-rot vel   x-rot acc   y-rot acc   z-rot acc
    22626 -2.98294E-04-3.06755E-05-3.12467E-05-2.45892E-04-2.49669E-05-2.68040E-05-8.64373E-05 2.24894E-04 8.58131E-05



 n o d a l   p r i n t   o u t   f o r   t i m e  s t e p    4801                              ( at time 2.3997598E+00 )

 nodal point  x-disp     y-disp      z-disp      x-vel       y-vel       z-vel      x-accl      y-accl      z-accl      x-coor      y-coor      z-coor
    22626  7.93428E-05 6.46358E-02-1.27987E-01-3.88696E-04 4.57781E-02-9.46366E-02-5.45043E-03 1.75965E-02-4.73057E-02 4.65945E+00-2.81262E+01-4.51097E+01



 n o d a l   p r i n t   o u t   f o r   t i m e  s t e p    4801                              ( at time 2.3997598E+00 )

 nodal point  x-rot      y-rot       z-rot       x-rot vel   y-rot vel   z-rot vel   x-rot acc   y-rot acc   z-rot acc
    22626 -3.21767E-04-3.30865E-05-3.40645E-05-2.38350E-04-2.50531E-05-3.02257E-05 7.54333E-05-8.61670E-07-3.42205E-05



 n o d a l   p r i n t   o u t   f o r   t i m e  s t e p    5001                              ( at time 2.4997498E+00 )

 nodal point  x-disp     y-disp      z-disp      x-vel       y-vel       z-vel      x-accl      y-accl      z-accl      x-coor      y-coor      z-coor
    22626  1.55946E-05 6.93140E-02-1.37622E-01-1.05820E-03 4.72324E-02-9.73127E-02-6.69575E-03 1.45448E-02-2.67637E-02 4.65939E+00-2.81215E+01-4.51193E+01



 n o d a l   p r i n t   o u t   f o r   t i m e  s t e p    5001                              ( at time 2.4997498E+00 )

 nodal point  x-rot      y-rot       z-rot       x-rot vel   y-rot vel   z-rot vel   x-rot acc   y-rot acc   z-rot acc
    22626 -3.45704E-04-3.47779E-05-3.66081E-05-2.37138E-04-1.28422E-05-1.97075E-05 1.21186E-05 1.22121E-04 1.05193E-04



 n o d a l   p r i n t   o u t   f o r   t i m e  s t e p    5201                              ( at time 2.5997398E+00 )

 nodal point  x-disp     y-disp      z-disp      x-vel       y-vel       z-vel      x-accl      y-accl      z-accl      x-coor      y-coor      z-coor
    22626 -5.38798E-05 7.40117E-02-1.47384E-01-3.12010E-04 4.62327E-02-9.74979E-02 7.46270E-03-9.99861E-03-1.85166E-03 4.65932E+00-2.81168E+01-4.51291E+01



 n o d a l   p r i n t   o u t   f o r   t i m e  s t e p    5201                              ( at time 2.5997398E+00 )

 nodal point  x-rot      y-rot       z-rot       x-rot vel   y-rot vel   z-rot vel   x-rot acc   y-rot acc   z-rot acc
    22626 -3.70251E-04-3.61797E-05-3.85719E-05-2.50431E-04-1.97377E-05-2.42835E-05-1.32943E-04-6.89625E-05-4.57650E-05



 n o d a l   p r i n t   o u t   f o r   t i m e  s t e p    5401                              ( at time 2.6997298E+00 )

 nodal point  x-disp     y-disp      z-disp      x-vel       y-vel       z-vel      x-accl      y-accl      z-accl      x-coor      y-coor      z-coor
    22626 -4.45676E-05 7.85907E-02-1.57119E-01 3.48064E-04 4.59667E-02-9.77561E-02 6.60140E-03-2.65971E-03-2.58255E-03 4.65933E+00-2.81122E+01-4.51388E+01



 n o d a l   p r i n t   o u t   f o r   t i m e  s t e p    5401                              ( at time 2.6997298E+00 )

 nodal point  x-rot      y-rot       z-rot       x-rot vel   y-rot vel   z-rot vel   x-rot acc   y-rot acc   z-rot acc
    22626 -3.95833E-04-3.88313E-05-4.15326E-05-2.69771E-04-2.21480E-05-2.72955E-05-1.93415E-04-2.41044E-05-3.01231E-05



 n o d a l   p r i n t   o u t   f o r   t i m e  s t e p    5601                              ( at time 2.7997198E+00 )

 nodal point  x-disp     y-disp      z-disp      x-vel       y-vel       z-vel      x-accl      y-accl      z-accl      x-coor      y-coor      z-coor
    22626 -1.01872E-05 8.32185E-02-1.66953E-01 3.82549E-04 4.66074E-02-9.92994E-02 3.44881E-04 6.40789E-03-1.54340E-02 4.65936E+00-2.81076E+01-4.51487E+01



 n o d a l   p r i n t   o u t   f o r   t i m e  s t e p    5601                              ( at time 2.7997198E+00 )

 nodal point  x-rot      y-rot       z-rot       x-rot vel   y-rot vel   z-rot vel   x-rot acc   y-rot acc   z-rot acc
    22626 -4.21460E-04-4.13451E-05-4.39236E-05-2.51343E-04-2.30805E-05-2.42666E-05 1.84291E-04-9.32674E-06 3.02921E-05



 n o d a l   p r i n t   o u t   f o r   t i m e  s t e p    5801                              ( at time 2.8997098E+00 )

 nodal point  x-disp     y-disp      z-disp      x-vel       y-vel       z-vel      x-accl      y-accl      z-accl      x-coor      y-coor      z-coor
    22626  9.39543E-06 8.78680E-02-1.76991E-01-4.59672E-04 4.64653E-02-1.01277E-01-8.42306E-03-1.42198E-03-1.97736E-02 4.65938E+00-2.81030E+01-4.51587E+01



 n o d a l   p r i n t   o u t   f o r   t i m e  s t e p    5801                              ( at time 2.8997098E+00 )

 nodal point  x-rot      y-rot       z-rot       x-rot vel   y-rot vel   z-rot vel   x-rot acc   y-rot acc   z-rot acc
    22626 -4.46084E-04-4.40324E-05-4.67260E-05-2.53743E-04-2.48156E-05-2.68863E-05-2.39950E-05-1.73527E-05-2.61990E-05



 n o d a l   p r i n t   o u t   f o r   t i m e  s t e p    6001                              ( at time 2.9996998E+00 )

 nodal point  x-disp     y-disp      z-disp      x-vel       y-vel       z-vel      x-accl      y-accl      z-accl      x-coor      y-coor      z-coor
    22626 -5.69537E-05 9.24603E-02-1.87116E-01-4.40960E-04 4.57207E-02-1.00863E-01 1.87140E-04-7.44636E-03 4.13198E-03 4.65932E+00-2.80984E+01-4.51688E+01



 n o d a l   p r i n t   o u t   f o r   t i m e  s t e p    6001                              ( at time 2.9996998E+00 )

 nodal point  x-rot      y-rot       z-rot       x-rot vel   y-rot vel   z-rot vel   x-rot acc   y-rot acc   z-rot acc
    22626 -4.71952E-04-4.61513E-05-4.92510E-05-2.61428E-04-1.82240E-05-2.33536E-05-7.68647E-05 6.59227E-05 3.53297E-05



 n o d a l   p r i n t   o u t   f o r   t i m e  s t e p    6201                              ( at time 3.0996898E+00 )

 nodal point  x-disp     y-disp      z-disp      x-vel       y-vel       z-vel      x-accl      y-accl      z-accl      x-coor      y-coor      z-coor
    22626 -7.84228E-05 9.70178E-02-1.97208E-01-2.30461E-04 4.54605E-02-1.01485E-01 2.10520E-03-2.60171E-03-6.21329E-03 4.65930E+00-2.80938E+01-4.51789E+01



 n o d a l   p r i n t   o u t   f o r   t i m e  s t e p    6201                              ( at time 3.0996898E+00 )

 nodal point  x-rot      y-rot       z-rot       x-rot vel   y-rot vel   z-rot vel   x-rot acc   y-rot acc   z-rot acc
    22626 -4.98128E-04-4.79038E-05-5.16079E-05-2.71197E-04-1.63105E-05-2.08231E-05-9.76954E-05 1.91372E-05 2.53082E-05



 n o d a l   p r i n t   o u t   f o r   t i m e  s t e p    6401                              ( at time 3.1996798E+00 )

 nodal point  x-disp     y-disp      z-disp      x-vel       y-vel       z-vel      x-accl      y-accl      z-accl      x-coor      y-coor      z-coor
    22626 -1.04232E-04 1.01591E-01-2.07459E-01-4.45788E-04 4.59858E-02-1.04041E-01-2.15348E-03 5.25314E-03-2.55645E-02 4.65927E+00-2.80892E+01-4.51892E+01



 n o d a l   p r i n t   o u t   f o r   t i m e  s t e p    6401                              ( at time 3.1996798E+00 )

 nodal point  x-rot      y-rot       z-rot       x-rot vel   y-rot vel   z-rot vel   x-rot acc   y-rot acc   z-rot acc
    22626 -5.24494E-04-4.93417E-05-5.35640E-05-2.62443E-04-1.29559E-05-2.02857E-05 8.75515E-05 3.35488E-05 5.37437E-06



 n o d a l   p r i n t   o u t   f o r   t i m e  s t e p    6601                              ( at time 3.2996698E+00 )

 nodal point  x-disp     y-disp      z-disp      x-vel       y-vel       z-vel      x-accl      y-accl      z-accl      x-coor      y-coor      z-coor
    22626 -1.47673E-04 1.06178E-01-2.17984E-01-3.85242E-04 4.58919E-02-1.06090E-01 6.05516E-04-9.39315E-04-2.04967E-02 4.65923E+00-2.80847E+01-4.51997E+01



 n o d a l   p r i n t   o u t   f o r   t i m e  s t e p    6601                              ( at time 3.2996698E+00 )

 nodal point  x-rot      y-rot       z-rot       x-rot vel   y-rot vel   z-rot vel   x-rot acc   y-rot acc   z-rot acc
    22626 -5.50793E-04-5.06951E-05-5.58612E-05-2.58561E-04-1.58217E-05-2.74446E-05 3.88226E-05-2.86609E-05-7.15966E-05



 n o d a l   p r i n t   o u t   f o r   t i m e  s t e p    6801                              ( at time 3.3996598E+00 )

 nodal point  x-disp     y-disp      z-disp      x-vel       y-vel       z-vel      x-accl      y-accl      z-accl      x-coor      y-coor      z-coor
    22626 -1.78619E-04 1.10806E-01-2.28666E-01-5.90775E-04 4.67093E-02-1.07469E-01-2.05553E-03 8.17532E-03-1.37876E-02 4.65920E+00-2.80800E+01-4.52104E+01



 n o d a l   p r i n t   o u t   f o r   t i m e  s t e p    6801                              ( at time 3.3996598E+00 )

 nodal point  x-rot      y-rot       z-rot       x-rot vel   y-rot vel   z-rot vel   x-rot acc   y-rot acc   z-rot acc
    22626 -5.76326E-04-5.26081E-05-5.81101E-05-2.59950E-04-1.75304E-05-1.57517E-05-1.38909E-05-1.70888E-05 1.16941E-04



 n o d a l   p r i n t   o u t   f o r   t i m e  s t e p    7001                              ( at time 3.4996498E+00 )

 nodal point  x-disp     y-disp      z-disp      x-vel       y-vel       z-vel      x-accl      y-accl      z-accl      x-coor      y-coor      z-coor
    22626 -2.30040E-04 1.15381E-01-2.39336E-01-2.32536E-04 4.52871E-02-1.05944E-01 3.58276E-03-1.42239E-02 1.52553E-02 4.65914E+00-2.80754E+01-4.52211E+01



 n o d a l   p r i n t   o u t   f o r   t i m e  s t e p    7001                              ( at time 3.4996498E+00 )

 nodal point  x-rot      y-rot       z-rot       x-rot vel   y-rot vel   z-rot vel   x-rot acc   y-rot acc   z-rot acc
    22626 -6.02216E-04-5.42597E-05-5.98092E-05-2.61336E-04-1.04478E-05-2.15250E-05-1.38604E-05 7.08334E-05-5.77386E-05



 n o d a l   p r i n t   o u t   f o r   t i m e  s t e p    7201                              ( at time 3.5996397E+00 )

 nodal point  x-disp     y-disp      z-disp      x-vel       y-vel       z-vel      x-accl      y-accl      z-accl      x-coor      y-coor      z-coor
    22626 -2.72464E-04 1.19872E-01-2.49923E-01-7.12038E-04 4.45546E-02-1.06174E-01-4.79551E-03-7.32533E-03-2.30790E-03 4.65910E+00-2.80710E+01-4.52316E+01



 n o d a l   p r i n t   o u t   f o r   t i m e  s t e p    7201                              ( at time 3.5996397E+00 )

 nodal point  x-rot      y-rot       z-rot       x-rot vel   y-rot vel   z-rot vel   x-rot acc   y-rot acc   z-rot acc
    22626 -6.27975E-04-5.50918E-05-6.18915E-05-2.54116E-04-7.18009E-06-2.39389E-05 7.22063E-05 3.26807E-05-2.41416E-05



 n o d a l   p r i n t   o u t   f o r   t i m e  s t e p    7401                              ( at time 3.6996297E+00 )

 nodal point  x-disp     y-disp      z-disp      x-vel       y-vel       z-vel      x-accl      y-accl      z-accl      x-coor      y-coor      z-coor
    22626 -3.46364E-04 1.24275E-01-2.60567E-01-5.50668E-04 4.34341E-02-1.06911E-01 1.61385E-03-1.12067E-02-7.36853E-03 4.65903E+00-2.80666E+01-4.52423E+01



 n o d a l   p r i n t   o u t   f o r   t i m e  s t e p    7401                              ( at time 3.6996297E+00 )

 nodal point  x-rot      y-rot       z-rot       x-rot vel   y-rot vel   z-rot vel   x-rot acc   y-rot acc   z-rot acc
    22626 -6.52964E-04-5.63195E-05-6.43727E-05-2.51994E-04-1.83736E-05-2.72023E-05 2.12153E-05-1.11946E-04-3.26378E-05



 n o d a l   p r i n t   o u t   f o r   t i m e  s t e p    7601                              ( at time 3.7996197E+00 )

 nodal point  x-disp     y-disp      z-disp      x-vel       y-vel       z-vel      x-accl      y-accl      z-accl      x-coor      y-coor      z-coor
    22626 -3.55834E-04 1.28553E-01-2.71238E-01-4.45963E-05 4.21322E-02-1.06430E-01 5.06123E-03-1.30198E-02 4.80782E-03 4.65902E+00-2.80623E+01-4.52530E+01



 n o d a l   p r i n t   o u t   f o r   t i m e  s t e p    7601                              ( at time 3.7996197E+00 )

 nodal point  x-rot      y-rot       z-rot       x-rot vel   y-rot vel   z-rot vel   x-rot acc   y-rot acc   z-rot acc
    22626 -6.77922E-04-5.85597E-05-6.67061E-05-2.38845E-04-2.16950E-05-2.44381E-05 1.31504E-04-3.32179E-05 2.76449E-05



 n o d a l   p r i n t   o u t   f o r   t i m e  s t e p    7801                              ( at time 3.8996097E+00 )

 nodal point  x-disp     y-disp      z-disp      x-vel       y-vel       z-vel      x-accl      y-accl      z-accl      x-coor      y-coor      z-coor
    22626 -3.59455E-04 1.32721E-01-2.81831E-01 5.89858E-05 4.07538E-02-1.04646E-01 1.03592E-03-1.37858E-02 1.78500E-02 4.65902E+00-2.80581E+01-4.52635E+01



 n o d a l   p r i n t   o u t   f o r   t i m e  s t e p    7801                              ( at time 3.8996097E+00 )

 nodal point  x-rot      y-rot       z-rot       x-rot vel   y-rot vel   z-rot vel   x-rot acc   y-rot acc   z-rot acc
    22626 -7.02598E-04-6.07813E-05-6.93279E-05-2.50818E-04-2.34917E-05-3.00303E-05-1.19739E-04-1.79690E-05-5.59273E-05



 n o d a l   p r i n t   o u t   f o r   t i m e  s t e p    8001                              ( at time 3.9995997E+00 )

 nodal point  x-disp     y-disp      z-disp      x-vel       y-vel       z-vel      x-accl      y-accl      z-accl      x-coor      y-coor      z-coor
    22626 -3.27359E-04 1.36714E-01-2.92193E-01 2.22148E-04 3.93814E-02-1.03345E-01 1.63179E-03-1.37248E-02 1.30087E-02 4.65905E+00-2.80541E+01-4.52739E+01



 n o d a l   p r i n t   o u t   f o r   t i m e  s t e p    8001                              ( at time 3.9995997E+00 )

 nodal point  x-rot      y-rot       z-rot       x-rot vel   y-rot vel   z-rot vel   x-rot acc   y-rot acc   z-rot acc
    22626 -7.27955E-04-6.31455E-05-7.25433E-05-2.58026E-04-1.87746E-05-2.74920E-05-7.20914E-05 4.71759E-05 2.53854E-05



 n o d a l   p r i n t   o u t   f o r   t i m e  s t e p    8201                              ( at time 4.0995897E+00 )

 nodal point  x-disp     y-disp      z-disp      x-vel       y-vel       z-vel      x-accl      y-accl      z-accl      x-coor      y-coor      z-coor
    22626 -3.55291E-04 1.40583E-01-3.02484E-01-1.34549E-04 3.80174E-02-1.02766E-01-3.56732E-03-1.36416E-02 5.78483E-03 4.65902E+00-2.80502E+01-4.52842E+01



 n o d a l   p r i n t   o u t   f o r   t i m e  s t e p    8201                              ( at time 4.0995897E+00 )

 nodal point  x-rot      y-rot       z-rot       x-rot vel   y-rot vel   z-rot vel   x-rot acc   y-rot acc   z-rot acc
    22626 -7.52045E-04-6.50109E-05-7.49317E-05-2.32477E-04-1.95885E-05-2.43732E-05 2.55515E-04-8.13963E-06 3.11915E-05



 n o d a l   p r i n t   o u t   f o r   t i m e  s t e p    8401                              ( at time 4.1995797E+00 )

 nodal point  x-disp     y-disp      z-disp      x-vel       y-vel       z-vel      x-accl      y-accl      z-accl      x-coor      y-coor      z-coor
    22626 -3.71268E-04 1.44379E-01-3.12726E-01-5.85974E-04 3.74877E-02-1.02163E-01-4.51471E-03-5.29741E-03 6.03178E-03 4.65900E+00-2.80465E+01-4.52944E+01



 n o d a l   p r i n t   o u t   f o r   t i m e  s t e p    8401                              ( at time 4.1995797E+00 )

 nodal point  x-rot      y-rot       z-rot       x-rot vel   y-rot vel   z-rot vel   x-rot acc   y-rot acc   z-rot acc
    22626 -7.75409E-04-6.66725E-05-7.73499E-05-2.40585E-04-9.04496E-06-2.39420E-05-8.10855E-05 1.05446E-04 4.31242E-06



 n o d a l   p r i n t   o u t   f o r   t i m e  s t e p    8601                              ( at time 4.2995697E+00 )

 nodal point  x-disp     y-disp      z-disp      x-vel       y-vel       z-vel      x-accl      y-accl      z-accl      x-coor      y-coor      z-coor
    22626 -4.33661E-04 1.48115E-01-3.22854E-01-5.02100E-04 3.71947E-02-1.00507E-01 8.38825E-04-2.93098E-03 1.65687E-02 4.65894E+00-2.80427E+01-4.53046E+01



 n o d a l   p r i n t   o u t   f o r   t i m e  s t e p    8601                              ( at time 4.2995697E+00 )

 nodal point  x-rot      y-rot       z-rot       x-rot vel   y-rot vel   z-rot vel   x-rot acc   y-rot acc   z-rot acc
    22626 -7.99073E-04-6.76673E-05-7.96146E-05-2.36372E-04-1.08281E-05-2.10351E-05 4.21406E-05-1.78328E-05 2.90718E-05



 n o d a l   p r i n t   o u t   f o r   t i m e  s t e p    8801                              ( at time 4.3995597E+00 )

 nodal point  x-disp     y-disp      z-disp      x-vel       y-vel       z-vel      x-accl      y-accl      z-accl      x-coor      y-coor      z-coor
    22626 -4.75178E-04 1.51822E-01-3.32759E-01-2.00495E-04 3.68708E-02-9.75798E-02 3.01635E-03-3.23880E-03 2.92703E-02 4.65890E+00-2.80390E+01-4.53145E+01



 n o d a l   p r i n t   o u t   f o r   t i m e  s t e p    8801                              ( at time 4.3995597E+00 )

 nodal point  x-rot      y-rot       z-rot       x-rot vel   y-rot vel   z-rot vel   x-rot acc   y-rot acc   z-rot acc
    22626 -8.22384E-04-6.87739E-05-8.16120E-05-2.33348E-04-4.27244E-06-1.87042E-05 3.02348E-05 6.55629E-05 2.33118E-05



 n o d a l   p r i n t   o u t   f o r   t i m e  s t e p    9001                              ( at time 4.4995497E+00 )

 nodal point  x-disp     y-disp      z-disp      x-vel       y-vel       z-vel      x-accl      y-accl      z-accl      x-coor      y-coor      z-coor
    22626 -5.52776E-04 1.55560E-01-3.42450E-01-1.31822E-03 3.80625E-02-9.69098E-02-1.11783E-02 1.19180E-02 6.70103E-03 4.65882E+00-2.80353E+01-4.53242E+01



 n o d a l   p r i n t   o u t   f o r   t i m e  s t e p    9001                              ( at time 4.4995497E+00 )

 nodal point  x-rot      y-rot       z-rot       x-rot vel   y-rot vel   z-rot vel   x-rot acc   y-rot acc   z-rot acc
    22626 -8.46327E-04-6.89173E-05-8.34895E-05-2.46833E-04-3.61697E-06-2.05031E-05-1.34859E-04 6.55533E-06-1.79916E-05



 n o d a l   p r i n t   o u t   f o r   t i m e  s t e p    9201                              ( at time 4.5995397E+00 )

 nodal point  x-disp     y-disp      z-disp      x-vel       y-vel       z-vel      x-accl      y-accl      z-accl      x-coor      y-coor      z-coor
    22626 -6.45255E-04 1.59483E-01-3.52141E-01-9.65021E-04 4.02409E-02-9.69590E-02 3.53231E-03 2.17867E-02-4.92086E-04 4.65873E+00-2.80313E+01-4.53339E+01



 n o d a l   p r i n t   o u t   f o r   t i m e  s t e p    9201                              ( at time 4.5995397E+00 )

 nodal point  x-rot      y-rot       z-rot       x-rot vel   y-rot vel   z-rot vel   x-rot acc   y-rot acc   z-rot acc
    22626 -8.70565E-04-6.94361E-05-8.60817E-05-2.45888E-04-1.20748E-05-2.99343E-05 9.44835E-06-8.45870E-05-9.43212E-05



 n o d a l   p r i n t   o u t   f o r   t i m e  s t e p    9401                              ( at time 4.6995297E+00 )

 nodal point  x-disp     y-disp      z-disp      x-vel       y-vel       z-vel      x-accl      y-accl      z-accl      x-coor      y-coor      z-coor
    22626 -7.34683E-04 1.63587E-01-3.61747E-01-6.75150E-04 4.24371E-02-9.51343E-02 2.89900E-03 2.19640E-02 1.82485E-02 4.65864E+00-2.80272E+01-4.53435E+01



 n o d a l   p r i n t   o u t   f o r   t i m e  s t e p    9401                              ( at time 4.6995297E+00 )

 nodal point  x-rot      y-rot       z-rot       x-rot vel   y-rot vel   z-rot vel   x-rot acc   y-rot acc   z-rot acc
    22626 -8.95751E-04-7.00399E-05-8.84800E-05-2.66039E-04-4.52335E-06-2.08124E-05-2.01526E-04 7.55223E-05 9.12288E-05



 n o d a l   p r i n t   o u t   f o r   t i m e  s t e p    9601                              ( at time 4.7995197E+00 )

 nodal point  x-disp     y-disp      z-disp      x-vel       y-vel       z-vel      x-accl      y-accl      z-accl      x-coor      y-coor      z-coor
    22626 -7.62354E-04 1.67986E-01-3.71179E-01 4.73268E-05 4.61661E-02-9.29178E-02 7.22550E-03 3.72934E-02 2.21676E-02 4.65861E+00-2.80228E+01-4.53529E+01



 n o d a l   p r i n t   o u t   f o r   t i m e  s t e p    9601                              ( at time 4.7995197E+00 )

 nodal point  x-rot      y-rot       z-rot       x-rot vel   y-rot vel   z-rot vel   x-rot acc   y-rot acc   z-rot acc
    22626 -9.23972E-04-7.14203E-05-9.07833E-05-2.98638E-04-2.00119E-05-2.79361E-05-3.26030E-04-1.54901E-04-7.12452E-05



 n o d a l   p r i n t   o u t   f o r   t i m e  s t e p    9801                              ( at time 4.8995097E+00 )

 nodal point  x-disp     y-disp      z-disp      x-vel       y-vel       z-vel      x-accl      y-accl      z-accl      x-coor      y-coor      z-coor
    22626 -8.08511E-04 1.72786E-01-3.80357E-01-8.26528E-04 5.07872E-02-9.08653E-02-8.73943E-03 4.62157E-02 2.05272E-02 4.65857E+00-2.80180E+01-4.53621E+01



 n o d a l   p r i n t   o u t   f o r   t i m e  s t e p    9801                              ( at time 4.8995097E+00 )

 nodal point  x-rot      y-rot       z-rot       x-rot vel   y-rot vel   z-rot vel   x-rot acc   y-rot acc   z-rot acc
    22626 -9.55443E-04-7.31226E-05-9.40452E-05-3.32237E-04-9.73266E-06-3.11235E-05-3.36019E-04 1.02802E-04-3.18764E-05



 n o d a l   p r i n t   o u t   f o r   t i m e  s t e p   10001                              ( at time 4.9994997E+00 )

 nodal point  x-disp     y-disp      z-disp      x-vel       y-vel       z-vel      x-accl      y-accl      z-accl      x-coor      y-coor      z-coor
    22626 -8.66436E-04 1.78183E-01-3.89430E-01-1.42355E-04 5.74321E-02-9.08935E-02 6.84239E-03 6.64556E-02-2.82851E-04 4.65851E+00-2.80126E+01-4.53712E+01



 n o d a l   p r i n t   o u t   f o r   t i m e  s t e p   10001                              ( at time 4.9994997E+00 )

 nodal point  x-rot      y-rot       z-rot       x-rot vel   y-rot vel   z-rot vel   x-rot acc   y-rot acc   z-rot acc
    22626 -9.90193E-04-7.43896E-05-9.68626E-05-3.75343E-04-1.53067E-05-2.54092E-05-4.31104E-04-5.57458E-05 5.71480E-05



 n o d a l   p r i n t   o u t   f o r   t i m e  s t e p   10202                              ( at time 5.0999896E+00 )

 nodal point  x-disp     y-disp      z-disp      x-vel       y-vel       z-vel      x-accl      y-accl      z-accl      x-coor      y-coor      z-coor
    22626 -8.86043E-04 1.84339E-01-3.98527E-01-6.07339E-04 6.53813E-02-9.06528E-02-4.62719E-03 7.91043E-02 2.39563E-03 4.65849E+00-2.80065E+01-4.53802E+01



 n o d a l   p r i n t   o u t   f o r   t i m e  s t e p   10202                              ( at time 5.0999896E+00 )

 nodal point  x-rot      y-rot       z-rot       x-rot vel   y-rot vel   z-rot vel   x-rot acc   y-rot acc   z-rot acc
    22626 -1.02959E-03-7.60547E-05-9.96900E-05-4.28967E-04-1.62765E-05-3.13990E-05-5.33626E-04-9.65047E-06-5.96061E-05



 n o d a l   p r i n t   o u t   f o r   t i m e  s t e p   10402                              ( at time 5.1999796E+00 )

 nodal point  x-disp     y-disp      z-disp      x-vel       y-vel       z-vel      x-accl      y-accl      z-accl      x-coor      y-coor      z-coor
    22626 -9.83924E-04 1.91333E-01-4.07502E-01-9.23889E-04 7.43971E-02-8.86026E-02-3.16581E-03 9.01673E-02 2.05043E-02 4.65839E+00-2.79995E+01-4.53892E+01



 n o d a l   p r i n t   o u t   f o r   t i m e  s t e p   10402                              ( at time 5.1999796E+00 )

 nodal point  x-rot      y-rot       z-rot       x-rot vel   y-rot vel   z-rot vel   x-rot acc   y-rot acc   z-rot acc
    22626 -1.07540E-03-7.80670E-05-1.02713E-04-5.01796E-04-1.84296E-05-3.65348E-05-7.28363E-04-2.15338E-05-5.13633E-05



 n o d a l   p r i n t   o u t   f o r   t i m e  s t e p   10602                              ( at time 5.2999696E+00 )

 nodal point  x-disp     y-disp      z-disp      x-vel       y-vel       z-vel      x-accl      y-accl      z-accl      x-coor      y-coor      z-coor
    22626 -1.03229E-03 1.99281E-01-4.16219E-01-4.34752E-04 8.47172E-02-8.65143E-02 4.89187E-03 1.03211E-01 2.08852E-02 4.65834E+00-2.79915E+01-4.53979E+01



 n o d a l   p r i n t   o u t   f o r   t i m e  s t e p   10602                              ( at time 5.2999696E+00 )

 nodal point  x-rot      y-rot       z-rot       x-rot vel   y-rot vel   z-rot vel   x-rot acc   y-rot acc   z-rot acc
    22626 -1.12948E-03-7.99316E-05-1.06308E-04-5.79356E-04-1.45668E-05-3.29406E-05-7.75669E-04 3.86327E-05 3.59462E-05



 n o d a l   p r i n t   o u t   f o r   t i m e  s t e p   10802                              ( at time 5.3999596E+00 )

 nodal point  x-disp     y-disp      z-disp      x-vel       y-vel       z-vel      x-accl      y-accl      z-accl      x-coor      y-coor      z-coor
    22626 -1.05020E-03 2.08394E-01-4.24885E-01 4.30422E-04 9.73430E-02-8.68291E-02 8.65262E-03 1.26271E-01-3.14856E-03 4.65832E+00-2.79824E+01-4.54066E+01



 n o d a l   p r i n t   o u t   f o r   t i m e  s t e p   10802                              ( at time 5.3999596E+00 )

 nodal point  x-rot      y-rot       z-rot       x-rot vel   y-rot vel   z-rot vel   x-rot acc   y-rot acc   z-rot acc
    22626 -1.19109E-03-8.12745E-05-1.08792E-04-6.49549E-04-2.03920E-05-2.10792E-05-7.02006E-04-5.82580E-05 1.18625E-04



 n o d a l   p r i n t   o u t   f o r   t i m e  s t e p   11002                              ( at time 5.4999496E+00 )

 nodal point  x-disp     y-disp      z-disp      x-vel       y-vel       z-vel      x-accl      y-accl      z-accl      x-coor      y-coor      z-coor
    22626 -9.86183E-04 2.18767E-01-4.33542E-01 7.98005E-04 1.10318E-01-8.63225E-02 3.67620E-03 1.29766E-01 5.06653E-03 4.65839E+00-2.79721E+01-4.54153E+01



 n o d a l   p r i n t   o u t   f o r   t i m e  s t e p   11002                              ( at time 5.4999496E+00 )

 nodal point  x-rot      y-rot       z-rot       x-rot vel   y-rot vel   z-rot vel   x-rot acc   y-rot acc   z-rot acc
    22626 -1.26091E-03-8.36123E-05-1.11178E-04-7.58040E-04-2.50567E-05-2.54719E-05-1.08502E-03-4.66523E-05-4.39307E-05



 n o d a l   p r i n t   o u t   f o r   t i m e  s t e p   11202                              ( at time 5.5999396E+00 )

 nodal point  x-disp     y-disp      z-disp      x-vel       y-vel       z-vel      x-accl      y-accl      z-accl      x-coor      y-coor      z-coor
    22626 -9.01156E-04 2.30495E-01-4.42034E-01 7.84726E-04 1.24878E-01-8.37005E-02-1.32799E-04 1.45615E-01 2.62228E-02 4.65847E+00-2.79603E+01-4.54238E+01



 n o d a l   p r i n t   o u t   f o r   t i m e  s t e p   11202                              ( at time 5.5999396E+00 )

 nodal point  x-rot      y-rot       z-rot       x-rot vel   y-rot vel   z-rot vel   x-rot acc   y-rot acc   z-rot acc
    22626 -1.34176E-03-8.55778E-05-1.13568E-04-8.61433E-04-1.38911E-05-1.49296E-05-1.03403E-03 1.11668E-04 1.05434E-04



 n o d a l   p r i n t   o u t   f o r   t i m e  s t e p   11402                              ( at time 5.6999296E+00 )

 nodal point  x-disp     y-disp      z-disp      x-vel       y-vel       z-vel      x-accl      y-accl      z-accl      x-coor      y-coor      z-coor
    22626 -7.77613E-04 2.43692E-01-4.50316E-01 1.49684E-03 1.39699E-01-8.18262E-02 7.12186E-03 1.48218E-01 1.87450E-02 4.65860E+00-2.79471E+01-4.54320E+01



 n o d a l   p r i n t   o u t   f o r   t i m e  s t e p   11402                              ( at time 5.6999296E+00 )

 nodal point  x-rot      y-rot       z-rot       x-rot vel   y-rot vel   z-rot vel   x-rot acc   y-rot acc   z-rot acc
    22626 -1.43356E-03-8.63890E-05-1.14656E-04-9.66096E-04-2.70911E-06-1.00826E-05-1.04673E-03 1.11830E-04 4.84746E-05



 n o d a l   p r i n t   o u t   f o r   t i m e  s t e p   11602                              ( at time 5.7999195E+00 )

 nodal point  x-disp     y-disp      z-disp      x-vel       y-vel       z-vel      x-accl      y-accl      z-accl      x-coor      y-coor      z-coor
    22626 -6.55638E-04 2.58481E-01-4.58436E-01 1.16051E-03 1.56212E-01-8.04159E-02-3.36366E-03 1.65151E-01 1.41035E-02 4.65872E+00-2.79323E+01-4.54402E+01



 n o d a l   p r i n t   o u t   f o r   t i m e  s t e p   11602                              ( at time 5.7999195E+00 )

 nodal point  x-rot      y-rot       z-rot       x-rot vel   y-rot vel   z-rot vel   x-rot acc   y-rot acc   z-rot acc
    22626 -1.53598E-03-8.67826E-05-1.15784E-04-1.08126E-03-4.17669E-06-1.60011E-05-1.15181E-03-1.46773E-05-5.91917E-05



 n o d a l   p r i n t   o u t   f o r   t i m e  s t e p   11802                              ( at time 5.8999095E+00 )

 nodal point  x-disp     y-disp      z-disp      x-vel       y-vel       z-vel      x-accl      y-accl      z-accl      x-coor      y-coor      z-coor
    22626 -5.16691E-04 2.74985E-01-4.66430E-01 1.81278E-03 1.74198E-01-7.98400E-02 6.52337E-03 1.79878E-01 5.76040E-03 4.65886E+00-2.79158E+01-4.54482E+01



 n o d a l   p r i n t   o u t   f o r   t i m e  s t e p   11802                              ( at time 5.8999095E+00 )

 nodal point  x-rot      y-rot       z-rot       x-rot vel   y-rot vel   z-rot vel   x-rot acc   y-rot acc   z-rot acc
    22626 -1.65032E-03-8.72529E-05-1.16688E-04-1.21608E-03-2.27388E-06-3.10101E-06-1.34830E-03 1.90300E-05 1.29014E-04



 n o d a l   p r i n t   o u t   f o r   t i m e  s t e p   12002                              ( at time 5.9998995E+00 )

 nodal point  x-disp     y-disp      z-disp      x-vel       y-vel       z-vel      x-accl      y-accl      z-accl      x-coor      y-coor      z-coor
    22626 -3.32998E-04 2.93384E-01-4.74424E-01 1.93628E-03 1.93423E-01-7.96587E-02 1.23505E-03 1.92264E-01 1.81298E-03 4.65904E+00-2.78974E+01-4.54561E+01



 n o d a l   p r i n t   o u t   f o r   t i m e  s t e p   12002                              ( at time 5.9998995E+00 )

 nodal point  x-rot      y-rot       z-rot       x-rot vel   y-rot vel   z-rot vel   x-rot acc   y-rot acc   z-rot acc
    22626 -1.77854E-03-8.67897E-05-1.16395E-04-1.35285E-03 1.70683E-06-2.50048E-06-1.36785E-03 3.98111E-05 6.00594E-06



 n o d a l   p r i n t   o u t   f o r   t i m e  s t e p   12202                              ( at time 6.0998895E+00 )

 nodal point  x-disp     y-disp      z-disp      x-vel       y-vel       z-vel      x-accl      y-accl      z-accl      x-coor      y-coor      z-coor
    22626 -1.37825E-04 3.13725E-01-4.82311E-01 1.83528E-03 2.13460E-01-7.84450E-02-1.01003E-03 2.00397E-01 1.21382E-02 4.65924E+00-2.78771E+01-4.54640E+01



 n o d a l   p r i n t   o u t   f o r   t i m e  s t e p   12202                              ( at time 6.0998895E+00 )

 nodal point  x-rot      y-rot       z-rot       x-rot vel   y-rot vel   z-rot vel   x-rot acc   y-rot acc   z-rot acc
    22626 -1.92031E-03-8.70752E-05-1.17353E-04-1.48963E-03-2.09560E-06-1.29732E-05-1.36793E-03-3.80280E-05-1.04737E-04



 n o d a l   p r i n t   o u t   f o r   t i m e  s t e p   12402                              ( at time 6.1998795E+00 )

 nodal point  x-disp     y-disp      z-disp      x-vel       y-vel       z-vel      x-accl      y-accl      z-accl      x-coor      y-coor      z-coor
    22626 -6.73112E-06 3.36156E-01-4.90146E-01 6.66784E-04 2.35262E-01-7.82247E-02-1.16862E-02 2.18041E-01 2.20299E-03 4.65937E+00-2.78547E+01-4.54719E+01



 n o d a l   p r i n t   o u t   f o r   t i m e  s t e p   12402                              ( at time 6.1998795E+00 )

 nodal point  x-rot      y-rot       z-rot       x-rot vel   y-rot vel   z-rot vel   x-rot acc   y-rot acc   z-rot acc
    22626 -2.07621E-03-8.69847E-05-1.18525E-04-1.62715E-03-1.19429E-06-1.33337E-05-1.37529E-03 9.01402E-06-3.60567E-06



 n o d a l   p r i n t   o u t   f o r   t i m e  s t e p   12602                              ( at time 6.2998695E+00 )

 nodal point  x-disp     y-disp      z-disp      x-vel       y-vel       z-vel      x-accl      y-accl      z-accl      x-coor      y-coor      z-coor
    22626  1.35092E-04 3.60877E-01-4.98037E-01 2.26643E-03 2.58949E-01-7.92042E-02 1.59981E-02 2.36887E-01-9.79649E-03 4.65951E+00-2.78300E+01-4.54798E+01



 n o d a l   p r i n t   o u t   f o r   t i m e  s t e p   12602                              ( at time 6.2998695E+00 )

 nodal point  x-rot      y-rot       z-rot       x-rot vel   y-rot vel   z-rot vel   x-rot acc   y-rot acc   z-rot acc
    22626 -2.24762E-03-8.76122E-05-1.19926E-04-1.78781E-03 5.97494E-07-1.50685E-05-1.60677E-03 1.79197E-05-1.73499E-05



 n o d a l   p r i n t   o u t   f o r   t i m e  s t e p   12802                              ( at time 6.3998595E+00 )

 nodal point  x-disp     y-disp      z-disp      x-vel       y-vel       z-vel      x-accl      y-accl      z-accl      x-coor      y-coor      z-coor
    22626  3.66134E-04 3.87920E-01-5.05961E-01 1.98078E-03 2.82111E-01-7.90312E-02-2.85679E-03 2.31644E-01 1.73080E-03 4.65974E+00-2.78029E+01-4.54877E+01



 n o d a l   p r i n t   o u t   f o r   t i m e  s t e p   12802                              ( at time 6.3998595E+00 )

 nodal point  x-rot      y-rot       z-rot       x-rot vel   y-rot vel   z-rot vel   x-rot acc   y-rot acc   z-rot acc
    22626 -2.43428E-03-8.68765E-05-1.20341E-04-1.94147E-03 8.32234E-06-4.44354E-06-1.53675E-03 7.72563E-05 1.06261E-04



 n o d a l   p r i n t   o u t   f o r   t i m e  s t e p   13002                              ( at time 6.4998495E+00 )

 nodal point  x-disp     y-disp      z-disp      x-vel       y-vel       z-vel      x-accl      y-accl      z-accl      x-coor      y-coor      z-coor
    22626  5.58117E-04 4.17364E-01-5.13826E-01 1.72004E-03 3.06877E-01-7.80952E-02-2.60768E-03 2.47689E-01 9.36111E-03 4.65993E+00-2.77735E+01-4.54955E+01



 n o d a l   p r i n t   o u t   f o r   t i m e  s t e p   13002                              ( at time 6.4998495E+00 )

 nodal point  x-rot      y-rot       z-rot       x-rot vel   y-rot vel   z-rot vel   x-rot acc   y-rot acc   z-rot acc
    22626 -2.63768E-03-8.77403E-05-1.21760E-04-2.11891E-03-1.64664E-05-1.93623E-05-1.77465E-03-2.47912E-04-1.49203E-04



 n o d a l   p r i n t   o u t   f o r   t i m e  s t e p   13202                              ( at time 6.5998395E+00 )

 nodal point  x-disp     y-disp      z-disp      x-vel       y-vel       z-vel      x-accl      y-accl      z-accl      x-coor      y-coor      z-coor
    22626  7.61933E-04 4.49257E-01-5.21557E-01 2.60080E-03 3.31304E-01-7.67213E-02 8.80846E-03 2.44290E-01 1.37403E-02 4.66014E+00-2.77416E+01-4.55033E+01



 n o d a l   p r i n t   o u t   f o r   t i m e  s t e p   13202                              ( at time 6.5998395E+00 )

 nodal point  x-rot      y-rot       z-rot       x-rot vel   y-rot vel   z-rot vel   x-rot acc   y-rot acc   z-rot acc
    22626 -2.85793E-03-8.79477E-05-1.23126E-04-2.28543E-03 1.26882E-05 1.93527E-06-1.66533E-03 2.91574E-04 2.12996E-04



 n o d a l   p r i n t   o u t   f o r   t i m e  s t e p   13402                              ( at time 6.6998295E+00 )

 nodal point  x-disp     y-disp      z-disp      x-vel       y-vel       z-vel      x-accl      y-accl      z-accl      x-coor      y-coor      z-coor
    22626  1.03876E-03 4.83697E-01-5.29216E-01 2.63709E-03 3.57620E-01-7.68750E-02 3.62882E-04 2.63188E-01-1.53706E-03 4.66041E+00-2.77071E+01-4.55109E+01



 n o d a l   p r i n t   o u t   f o r   t i m e  s t e p   13402                              ( at time 6.6998295E+00 )

 nodal point  x-rot      y-rot       z-rot       x-rot vel   y-rot vel   z-rot vel   x-rot acc   y-rot acc   z-rot acc
    22626 -3.09485E-03-8.69076E-05-1.23459E-04-2.45840E-03 2.01066E-06-1.05465E-05-1.72992E-03-1.06786E-04-1.24830E-04



 n o d a l   p r i n t   o u t   f o r   t i m e  s t e p   13602                              ( at time 6.7998195E+00 )

 nodal point  x-disp     y-disp      z-disp      x-vel       y-vel       z-vel      x-accl      y-accl      z-accl      x-coor      y-coor      z-coor
    22626  1.25262E-03 5.20799E-01-5.36912E-01 1.93388E-03 3.84376E-01-7.66271E-02-7.03276E-03 2.67589E-01 2.47861E-03 4.66063E+00-2.76700E+01-4.55186E+01



 n o d a l   p r i n t   o u t   f o r   t i m e  s t e p   13602                              ( at time 6.7998195E+00 )

 nodal point  x-rot      y-rot       z-rot       x-rot vel   y-rot vel   z-rot vel   x-rot acc   y-rot acc   z-rot acc
    22626 -3.34997E-03-8.69795E-05-1.25571E-04-2.64488E-03-2.85651E-06-2.06145E-05-1.86494E-03-4.86766E-05-1.00691E-04



 n o d a l   p r i n t   o u t   f o r   t i m e  s t e p   13802                              ( at time 6.8998095E+00 )

 nodal point  x-disp     y-disp      z-disp      x-vel       y-vel       z-vel      x-accl      y-accl      z-accl      x-coor      y-coor      z-coor
    22626  1.46365E-03 5.60547E-01-5.44503E-01 2.45398E-03 4.10907E-01-7.53947E-02 5.20153E-03 2.65335E-01 1.23253E-02 4.66084E+00-2.76303E+01-4.55262E+01



 n o d a l   p r i n t   o u t   f o r   t i m e  s t e p   13802                              ( at time 6.8998095E+00 )

 nodal point  x-rot      y-rot       z-rot       x-rot vel   y-rot vel   z-rot vel   x-rot acc   y-rot acc   z-rot acc
    22626 -3.62317E-03-8.70540E-05-1.27045E-04-2.82618E-03 7.40632E-06-7.18591E-06-1.81321E-03 1.02639E-04 1.34299E-04



 n o d a l   p r i n t   o u t   f o r   t i m e  s t e p   14002                              ( at time 6.9997995E+00 )

 nodal point  x-disp     y-disp      z-disp      x-vel       y-vel       z-vel      x-accl      y-accl      z-accl      x-coor      y-coor      z-coor
    22626  1.77747E-03 6.03049E-01-5.51982E-01 3.00696E-03 4.39076E-01-7.42657E-02 5.53032E-03 2.81718E-01 1.12916E-02 4.66115E+00-2.75878E+01-4.55337E+01



 n o d a l   p r i n t   o u t   f o r   t i m e  s t e p   14002                              ( at time 6.9997995E+00 )

 nodal point  x-rot      y-rot       z-rot       x-rot vel   y-rot vel   z-rot vel   x-rot acc   y-rot acc   z-rot acc
    22626 -3.91537E-03-8.64731E-05-1.28449E-04-3.02255E-03 4.29865E-06-1.81654E-05-1.96388E-03-3.10798E-05-1.09806E-04



 n o d a l   p r i n t   o u t   f o r   t i m e  s t e p   14202                              ( at time 7.0997895E+00 )

 nodal point  x-disp     y-disp      z-disp      x-vel       y-vel       z-vel      x-accl      y-accl      z-accl      x-coor      y-coor      z-coor
    22626  2.02366E-03 6.48369E-01-5.59349E-01 2.02054E-03 4.67488E-01-7.33310E-02-9.86516E-03 2.84149E-01 9.34765E-03 4.66140E+00-2.75425E+01-4.55411E+01



 n o d a l   p r i n t   o u t   f o r   t i m e  s t e p   14202                              ( at time 7.0997895E+00 )

 nodal point  x-rot      y-rot       z-rot       x-rot vel   y-rot vel   z-rot vel   x-rot acc   y-rot acc   z-rot acc
    22626 -4.22606E-03-8.65752E-05-1.31093E-04-3.19866E-03-2.91908E-06-2.98901E-05-1.76121E-03-7.21843E-05-1.17258E-04



 n o d a l   p r i n t   o u t   f o r   t i m e  s t e p   14402                              ( at time 7.1997794E+00 )

 nodal point  x-disp     y-disp      z-disp      x-vel       y-vel       z-vel      x-accl      y-accl      z-accl      x-coor      y-coor      z-coor
    22626  2.23897E-03 6.96516E-01-5.66572E-01 2.69944E-03 4.95298E-01-7.03797E-02 6.78973E-03 2.78124E-01 2.95162E-02 4.66161E+00-2.74943E+01-4.55483E+01



 n o d a l   p r i n t   o u t   f o r   t i m e  s t e p   14402                              ( at time 7.1997794E+00 )

 nodal point  x-rot      y-rot       z-rot       x-rot vel   y-rot vel   z-rot vel   x-rot acc   y-rot acc   z-rot acc
    22626 -4.55523E-03-8.69515E-05-1.33616E-04-3.38854E-03 5.46961E-06-1.77926E-05-1.89900E-03 8.38954E-05 1.20987E-04



 n o d a l   p r i n t   o u t   f o r   t i m e  s t e p   14602                              ( at time 7.2997694E+00 )

 nodal point  x-disp     y-disp      z-disp      x-vel       y-vel       z-vel      x-accl      y-accl      z-accl      x-coor      y-coor      z-coor
    22626  2.52511E-03 7.47467E-01-5.73500E-01 2.64768E-03 5.24170E-01-6.77099E-02-5.17640E-04 2.88750E-01 2.66999E-02 4.66190E+00-2.74434E+01-4.55552E+01



 n o d a l   p r i n t   o u t   f o r   t i m e  s t e p   14602                              ( at time 7.2997694E+00 )

 nodal point  x-rot      y-rot       z-rot       x-rot vel   y-rot vel   z-rot vel   x-rot acc   y-rot acc   z-rot acc
    22626 -4.90498E-03-8.57848E-05-1.35373E-04-3.59464E-03 4.75978E-06-2.28169E-05-2.06121E-03-7.09903E-06-5.02484E-05



 n o d a l   p r i n t   o u t   f o r   t i m e  s t e p   14802                              ( at time 7.3997594E+00 )

 nodal point  x-disp     y-disp      z-disp      x-vel       y-vel       z-vel      x-accl      y-accl      z-accl      x-coor      y-coor      z-coor
    22626  2.75546E-03 8.01297E-01-5.80062E-01 2.11413E-03 5.52130E-01-6.28578E-02-5.33607E-03 2.79635E-01 4.85267E-02 4.66213E+00-2.73895E+01-4.55618E+01



 n o d a l   p r i n t   o u t   f o r   t i m e  s t e p   14802                              ( at time 7.3997594E+00 )

 nodal point  x-rot      y-rot       z-rot       x-rot vel   y-rot vel   z-rot vel   x-rot acc   y-rot acc   z-rot acc
    22626 -5.27418E-03-8.62849E-05-1.38448E-04-3.78929E-03-5.79785E-06-3.67970E-05-1.94669E-03-1.05587E-04-1.39815E-04



 n o d a l   p r i n t   o u t   f o r   t i m e  s t e p   15002                              ( at time 7.4997494E+00 )

 nodal point  x-disp     y-disp      z-disp      x-vel       y-vel       z-vel      x-accl      y-accl      z-accl      x-coor      y-coor      z-coor
    22626  2.97147E-03 8.57930E-01-5.86097E-01 2.47519E-03 5.80634E-01-5.86980E-02 3.61094E-03 2.85059E-01 4.16015E-02 4.66235E+00-2.73329E+01-4.55678E+01



 n o d a l   p r i n t   o u t   f o r   t i m e  s t e p   15002                              ( at time 7.4997494E+00 )

 nodal point  x-rot      y-rot       z-rot       x-rot vel   y-rot vel   z-rot vel   x-rot acc   y-rot acc   z-rot acc
    22626 -5.66251E-03-8.59034E-05-1.41715E-04-3.99138E-03 2.13694E-06-3.39909E-05-2.02112E-03 7.93556E-05 2.80641E-05



 n o d a l   p r i n t   o u t   f o r   t i m e  s t e p   15202                              ( at time 7.5997394E+00 )

 nodal point  x-disp     y-disp      z-disp      x-vel       y-vel       z-vel      x-accl      y-accl      z-accl      x-coor      y-coor      z-coor
    22626  3.24620E-03 9.17441E-01-5.91779E-01 2.70462E-03 6.09821E-01-5.46732E-02 2.29450E-03 2.91906E-01 4.02520E-02 4.66262E+00-2.72734E+01-4.55735E+01



 n o d a l   p r i n t   o u t   f o r   t i m e  s t e p   15202                              ( at time 7.5997394E+00 )

 nodal point  x-rot      y-rot       z-rot       x-rot vel   y-rot vel   z-rot vel   x-rot acc   y-rot acc   z-rot acc
    22626 -6.07104E-03-8.57320E-05-1.45293E-04-4.19446E-03-6.20972E-06-4.13439E-05-2.03106E-03-8.34750E-05-7.35376E-05



 n o d a l   p r i n t   o u t   f o r   t i m e  s t e p   15402                              ( at time 7.6997294E+00 )

 nodal point  x-disp     y-disp      z-disp      x-vel       y-vel       z-vel      x-accl      y-accl      z-accl      x-coor      y-coor      z-coor
    22626  3.47262E-03 9.79866E-01-5.96930E-01 2.00075E-03 6.38778E-01-4.86722E-02-7.03935E-03 2.89597E-01 6.00167E-02 4.66285E+00-2.72110E+01-4.55787E+01



 n o d a l   p r i n t   o u t   f o r   t i m e  s t e p   15402                              ( at time 7.6997294E+00 )

 nodal point  x-rot      y-rot       z-rot       x-rot vel   y-rot vel   z-rot vel   x-rot acc   y-rot acc   z-rot acc
    22626 -6.50046E-03-8.68672E-05-1.49632E-04-4.40005E-03-1.22288E-05-4.46721E-05-2.05606E-03-6.01965E-05-3.32860E-05



 n o d a l   p r i n t   o u t   f o r   t i m e  s t e p   15602                              ( at time 7.7997194E+00 )

 nodal point  x-disp     y-disp      z-disp      x-vel       y-vel       z-vel      x-accl      y-accl      z-accl      x-coor      y-coor      z-coor
    22626  3.66703E-03 1.04516E+00-6.01566E-01 1.90947E-03 6.67593E-01-4.35782E-02-9.12920E-04 2.88182E-01 5.09449E-02 4.66304E+00-2.71457E+01-4.55833E+01



 n o d a l   p r i n t   o u t   f o r   t i m e  s t e p   15602                              ( at time 7.7997194E+00 )

 nodal point  x-rot      y-rot       z-rot       x-rot vel   y-rot vel   z-rot vel   x-rot acc   y-rot acc   z-rot acc
    22626 -6.95043E-03-8.74595E-05-1.54941E-04-4.59703E-03-4.82414E-06-5.81400E-05-1.97004E-03 7.40537E-05-1.34692E-04



 n o d a l   p r i n t   o u t   f o r   t i m e  s t e p   15802                              ( at time 7.8997094E+00 )

 nodal point  x-disp     y-disp      z-disp      x-vel       y-vel       z-vel      x-accl      y-accl      z-accl      x-coor      y-coor      z-coor
    22626  3.89650E-03 1.11338E+00-6.05618E-01 2.46785E-03 6.97156E-01-3.72171E-02 5.58434E-03 2.95653E-01 6.36171E-02 4.66327E+00-2.70774E+01-4.55873E+01



 n o d a l   p r i n t   o u t   f o r   t i m e  s t e p   15802                              ( at time 7.8997094E+00 )

 nodal point  x-rot      y-rot       z-rot       x-rot vel   y-rot vel   z-rot vel   x-rot acc   y-rot acc   z-rot acc
    22626 -7.42038E-03-8.81450E-05-1.60090E-04-4.80536E-03-1.49421E-05-5.37653E-05-2.08344E-03-1.01190E-04 4.37512E-05



 n o d a l   p r i n t   o u t   f o r   t i m e  s t e p   16002                              ( at time 7.9996994E+00 )

 nodal point  x-disp     y-disp      z-disp      x-vel       y-vel       z-vel      x-accl      y-accl      z-accl      x-coor      y-coor      z-coor
    22626  4.11543E-03 1.18455E+00-6.09010E-01 1.96665E-03 7.26017E-01-3.07609E-02-5.01241E-03 2.88645E-01 6.45680E-02 4.66349E+00-2.70063E+01-4.55907E+01



 n o d a l   p r i n t   o u t   f o r   t i m e  s t e p   16002                              ( at time 7.9996994E+00 )

 nodal point  x-rot      y-rot       z-rot       x-rot vel   y-rot vel   z-rot vel   x-rot acc   y-rot acc   z-rot acc
    22626 -7.91093E-03-8.96679E-05-1.65940E-04-5.01299E-03-1.58735E-05-6.75786E-05-2.07651E-03-9.31549E-06-1.38146E-04



 n o d a l   p r i n t   o u t   f o r   t i m e  s t e p   16202                              ( at time 8.0996894E+00 )

 nodal point  x-disp     y-disp      z-disp      x-vel       y-vel       z-vel      x-accl      y-accl      z-accl      x-coor      y-coor      z-coor
    22626  4.28582E-03 1.25865E+00-6.11775E-01 1.78376E-03 7.55674E-01-2.38500E-02-1.82915E-03 2.96601E-01 6.91167E-02 4.66366E+00-2.69322E+01-4.55935E+01



 n o d a l   p r i n t   o u t   f o r   t i m e  s t e p   16202                              ( at time 8.0996894E+00 )

 nodal point  x-rot      y-rot       z-rot       x-rot vel   y-rot vel   z-rot vel   x-rot acc   y-rot acc   z-rot acc
    22626 -8.42251E-03-9.14048E-05-1.73063E-04-5.21803E-03-1.84109E-05-6.74112E-05-2.05068E-03-2.53758E-05 1.67415E-06



 n o d a l   p r i n t   o u t   f o r   t i m e  s t e p   16402                              ( at time 8.1996794E+00 )

 nodal point  x-disp     y-disp      z-disp      x-vel       y-vel       z-vel      x-accl      y-accl      z-accl      x-coor      y-coor      z-coor
    22626  4.45550E-03 1.33565E+00-6.13716E-01 2.10660E-03 7.84300E-01-1.50412E-02 3.22879E-03 2.86286E-01 8.80962E-02 4.66383E+00-2.68552E+01-4.55954E+01



 n o d a l   p r i n t   o u t   f o r   t i m e  s t e p   16402                              ( at time 8.1996794E+00 )

 nodal point  x-rot      y-rot       z-rot       x-rot vel   y-rot vel   z-rot vel   x-rot acc   y-rot acc   z-rot acc
    22626 -8.95446E-03-9.29983E-05-1.79568E-04-5.43424E-03-1.53073E-05-6.26618E-05-2.16226E-03 3.10389E-05 4.74989E-05



 n o d a l   p r i n t   o u t   f o r   t i m e  s t e p   16602                              ( at time 8.2996694E+00 )

 nodal point  x-disp     y-disp      z-disp      x-vel       y-vel       z-vel      x-accl      y-accl      z-accl      x-coor      y-coor      z-coor
    22626  4.66892E-03 1.41551E+00-6.14745E-01 1.89891E-03 8.12828E-01-5.61254E-03-2.07715E-03 2.85303E-01 9.42965E-02 4.66404E+00-2.67753E+01-4.55965E+01



 n o d a l   p r i n t   o u t   f o r   t i m e  s t e p   16602                              ( at time 8.2996694E+00 )

 nodal point  x-rot      y-rot       z-rot       x-rot vel   y-rot vel   z-rot vel   x-rot acc   y-rot acc   z-rot acc
    22626 -9.50798E-03-9.51985E-05-1.87221E-04-5.64320E-03-2.79695E-05-8.39031E-05-2.08982E-03-1.26635E-04-2.12435E-04



 n o d a l   p r i n t   o u t   f o r   t i m e  s t e p   16802                              ( at time 8.3996594E+00 )

 nodal point  x-disp     y-disp      z-disp      x-vel       y-vel       z-vel      x-accl      y-accl      z-accl      x-coor      y-coor      z-coor
    22626  4.84681E-03 1.49824E+00-6.14823E-01 1.84410E-03 8.41451E-01 3.52032E-03-5.48176E-04 2.86260E-01 9.13379E-02 4.66422E+00-2.66926E+01-4.55965E+01



 n o d a l   p r i n t   o u t   f o r   t i m e  s t e p   16802                              ( at time 8.3996594E+00 )

 nodal point  x-rot      y-rot       z-rot       x-rot vel   y-rot vel   z-rot vel   x-rot acc   y-rot acc   z-rot acc
    22626 -1.00817E-02-9.80850E-05-1.95868E-04-5.84974E-03-2.51124E-05-8.22968E-05-2.06564E-03 2.85739E-05 1.60645E-05



 n o d a l   p r i n t   o u t   f o r   t i m e  s t e p   17002                              ( at time 8.4996494E+00 )

 nodal point  x-disp     y-disp      z-disp      x-vel       y-vel       z-vel      x-accl      y-accl      z-accl      x-coor      y-coor      z-coor
    22626  5.05703E-03 1.58377E+00-6.13929E-01 2.32981E-03 8.69240E-01 1.41734E-02 4.85762E-03 2.77926E-01 1.06542E-01 4.66443E+00-2.66071E+01-4.55956E+01



 n o d a l   p r i n t   o u t   f o r   t i m e  s t e p   17002                              ( at time 8.4996494E+00 )

 nodal point  x-rot      y-rot       z-rot       x-rot vel   y-rot vel   z-rot vel   x-rot acc   y-rot acc   z-rot acc
    22626 -1.06762E-02-1.00691E-04-2.04179E-04-6.06380E-03-2.26196E-05-8.49689E-05-2.14084E-03 2.49303E-05-2.67239E-05



 n o d a l   p r i n t   o u t   f o r   t i m e  s t e p   17202                              ( at time 8.5996394E+00 )

 nodal point  x-disp     y-disp      z-disp      x-vel       y-vel       z-vel      x-accl      y-accl      z-accl      x-coor      y-coor      z-coor
    22626  5.27361E-03 1.67213E+00-6.11898E-01 2.11865E-03 8.97527E-01 2.60501E-02-2.11183E-03 2.82890E-01 1.18779E-01 4.66465E+00-2.65187E+01-4.55936E+01



 n o d a l   p r i n t   o u t   f o r   t i m e  s t e p   17202                              ( at time 8.5996394E+00 )

 nodal point  x-rot      y-rot       z-rot       x-rot vel   y-rot vel   z-rot vel   x-rot acc   y-rot acc   z-rot acc
    22626 -1.12920E-02-1.03287E-04-2.12962E-04-6.26561E-03-2.71084E-05-8.94008E-05-2.01830E-03-4.48924E-05-4.43226E-05



 n o d a l   p r i n t   o u t   f o r   t i m e  s t e p   17402                              ( at time 8.6996293E+00 )

 nodal point  x-disp     y-disp      z-disp      x-vel       y-vel       z-vel      x-accl      y-accl      z-accl      x-coor      y-coor      z-coor
    22626  5.46356E-03 1.76325E+00-6.08690E-01 1.72260E-03 9.24847E-01 3.84472E-02-3.96087E-03 2.73225E-01 1.23982E-01 4.66484E+00-2.64276E+01-4.55904E+01



 n o d a l   p r i n t   o u t   f o r   t i m e  s t e p   17402                              ( at time 8.6996293E+00 )

 nodal point  x-rot      y-rot       z-rot       x-rot vel   y-rot vel   z-rot vel   x-rot acc   y-rot acc   z-rot acc
    22626 -1.19280E-02-1.05806E-04-2.21635E-04-6.45638E-03-2.86978E-05-9.05219E-05-1.90783E-03-1.58958E-05-1.12129E-05



 n o d a l   p r i n t   o u t   f o r   t i m e  s t e p   17602                              ( at time 8.7996193E+00 )

 nodal point  x-disp     y-disp      z-disp      x-vel       y-vel       z-vel      x-accl      y-accl      z-accl      x-coor      y-coor      z-coor
    22626  5.64373E-03 1.85711E+00-6.04207E-01 1.95187E-03 9.52301E-01 5.10918E-02 2.29297E-03 2.74567E-01 1.26459E-01 4.66502E+00-2.63337E+01-4.55859E+01



 n o d a l   p r i n t   o u t   f o r   t i m e  s t e p   17602                              ( at time 8.7996193E+00 )

 nodal point  x-rot      y-rot       z-rot       x-rot vel   y-rot vel   z-rot vel   x-rot acc   y-rot acc   z-rot acc
    22626 -1.25828E-02-1.07644E-04-2.30422E-04-6.64444E-03-1.28631E-05-8.75543E-05-1.88083E-03 1.58363E-04 2.96789E-05



 n o d a l   p r i n t   o u t   f o r   t i m e  s t e p   17802                              ( at time 8.8996093E+00 )

 nodal point  x-disp     y-disp      z-disp      x-vel       y-vel       z-vel      x-accl      y-accl      z-accl      x-coor      y-coor      z-coor
    22626  5.88650E-03 1.95372E+00-5.98448E-01 2.58189E-03 9.79486E-01 6.41529E-02 6.30084E-03 2.71884E-01 1.30624E-01 4.66526E+00-2.62371E+01-4.55802E+01



 n o d a l   p r i n t   o u t   f o r   t i m e  s t e p   17802                              ( at time 8.8996093E+00 )

 nodal point  x-rot      y-rot       z-rot       x-rot vel   y-rot vel   z-rot vel   x-rot acc   y-rot acc   z-rot acc
    22626 -1.32559E-02-1.08641E-04-2.38845E-04-6.82409E-03-2.11752E-05-8.99243E-05-1.79661E-03-8.31285E-05-2.37021E-05



 n o d a l   p r i n t   o u t   f o r   t i m e  s t e p   18002                              ( at time 8.9995993E+00 )

 nodal point  x-disp     y-disp      z-disp      x-vel       y-vel       z-vel      x-accl      y-accl      z-accl      x-coor      y-coor      z-coor
    22626  6.12680E-03 2.05298E+00-5.91334E-01 2.27178E-03 1.00562E+00 7.81726E-02-3.10140E-03 2.61374E-01 1.40211E-01 4.66550E+00-2.61378E+01-4.55731E+01



 n o d a l   p r i n t   o u t   f o r   t i m e  s t e p   18002                              ( at time 8.9995993E+00 )

 nodal point  x-rot      y-rot       z-rot       x-rot vel   y-rot vel   z-rot vel   x-rot acc   y-rot acc   z-rot acc
    22626 -1.39477E-02-1.10786E-04-2.47434E-04-7.00747E-03-1.49432E-05-8.54140E-05-1.83397E-03 6.23255E-05 4.51076E-05



 n o d a l   p r i n t   o u t   f o r   t i m e  s t e p   18202                              ( at time 9.0995893E+00 )

 nodal point  x-disp     y-disp      z-disp      x-vel       y-vel       z-vel      x-accl      y-accl      z-accl      x-coor      y-coor      z-coor
    22626  6.37541E-03 2.15485E+00-5.82769E-01 2.80914E-03 1.03149E+00 9.29421E-02 5.37410E-03 2.58744E-01 1.47710E-01 4.66575E+00-2.60360E+01-4.55645E+01



 n o d a l   p r i n t   o u t   f o r   t i m e  s t e p   18202                              ( at time 9.0995893E+00 )

 nodal point  x-rot      y-rot       z-rot       x-rot vel   y-rot vel   z-rot vel   x-rot acc   y-rot acc   z-rot acc
    22626 -1.46569E-02-1.11691E-04-2.55443E-04-7.17613E-03-4.28441E-06-7.82827E-05-1.68680E-03 1.06599E-04 7.13207E-05



 n o d a l   p r i n t   o u t   f o r   t i m e  s t e p   18402                              ( at time 9.1995793E+00 )

 nodal point  x-disp     y-disp      z-disp      x-vel       y-vel       z-vel      x-accl      y-accl      z-accl      x-coor      y-coor      z-coor
    22626  6.72016E-03 2.25927E+00-5.72730E-01 3.44118E-03 1.05673E+00 1.07572E-01 6.32103E-03 2.52403E-01 1.46317E-01 4.66610E+00-2.59316E+01-4.55545E+01



 n o d a l   p r i n t   o u t   f o r   t i m e  s t e p   18402                              ( at time 9.1995793E+00 )

 nodal point  x-rot      y-rot       z-rot       x-rot vel   y-rot vel   z-rot vel   x-rot acc   y-rot acc   z-rot acc
    22626 -1.53816E-02-1.11992E-04-2.63661E-04-7.31814E-03-1.98407E-06-8.03207E-05-1.42030E-03 2.30058E-05-2.03823E-05



 n o d a l   p r i n t   o u t   f o r   t i m e  s t e p   18602                              ( at time 9.2995693E+00 )

 nodal point  x-disp     y-disp      z-disp      x-vel       y-vel       z-vel      x-accl      y-accl      z-accl      x-coor      y-coor      z-coor
    22626  7.02567E-03 2.36622E+00-5.61216E-01 3.10207E-03 1.08202E+00 1.22744E-01-3.39143E-03 2.52932E-01 1.51736E-01 4.66640E+00-2.58246E+01-4.55429E+01



 n o d a l   p r i n t   o u t   f o r   t i m e  s t e p   18602                              ( at time 9.2995693E+00 )

 nodal point  x-rot      y-rot       z-rot       x-rot vel   y-rot vel   z-rot vel   x-rot acc   y-rot acc   z-rot acc
    22626 -1.61215E-02-1.12476E-04-2.71686E-04-7.47895E-03-8.51156E-07-7.56982E-05-1.60825E-03 1.13303E-05 4.62294E-05



 n o d a l   p r i n t   o u t   f o r   t i m e  s t e p   18802                              ( at time 9.3995593E+00 )

 nodal point  x-disp     y-disp      z-disp      x-vel       y-vel       z-vel      x-accl      y-accl      z-accl      x-coor      y-coor      z-coor
    22626  7.36893E-03 2.47565E+00-5.48118E-01 3.97354E-03 1.10640E+00 1.38858E-01 8.71563E-03 2.43779E-01 1.61148E-01 4.66674E+00-2.57152E+01-4.55298E+01



 n o d a l   p r i n t   o u t   f o r   t i m e  s t e p   18802                              ( at time 9.3995593E+00 )

 nodal point  x-rot      y-rot       z-rot       x-rot vel   y-rot vel   z-rot vel   x-rot acc   y-rot acc   z-rot acc
    22626 -1.68765E-02-1.13245E-04-2.79649E-04-7.61536E-03-1.11756E-06-6.83762E-05-1.36426E-03-2.66434E-06 7.32274E-05



 n o d a l   p r i n t   o u t   f o r   t i m e  s t e p   19002                              ( at time 9.4995493E+00 )

 nodal point  x-disp     y-disp      z-disp      x-vel       y-vel       z-vel      x-accl      y-accl      z-accl      x-coor      y-coor      z-coor
    22626  7.77670E-03 2.58746E+00-5.33399E-01 4.51460E-03 1.12973E+00 1.55982E-01 5.41114E-03 2.33327E-01 1.71260E-01 4.66715E+00-2.56034E+01-4.55151E+01



 n o d a l   p r i n t   o u t   f o r   t i m e  s t e p   19002                              ( at time 9.4995493E+00 )

 nodal point  x-rot      y-rot       z-rot       x-rot vel   y-rot vel   z-rot vel   x-rot acc   y-rot acc   z-rot acc
    22626 -1.76444E-02-1.12265E-04-2.87190E-04-7.74208E-03 1.68869E-05-7.47496E-05-1.26733E-03 1.80062E-04-6.37405E-05



 n o d a l   p r i n t   o u t   f o r   t i m e  s t e p   19202                              ( at time 9.5995393E+00 )

 nodal point  x-disp     y-disp      z-disp      x-vel       y-vel       z-vel      x-accl      y-accl      z-accl      x-coor      y-coor      z-coor
    22626  8.20641E-03 2.70156E+00-5.16877E-01 3.84356E-03 1.15281E+00 1.74341E-01-6.71100E-03 2.30822E-01 1.83606E-01 4.66758E+00-2.54893E+01-4.54986E+01



 n o d a l   p r i n t   o u t   f o r   t i m e  s t e p   19202                              ( at time 9.5995393E+00 )

 nodal point  x-rot      y-rot       z-rot       x-rot vel   y-rot vel   z-rot vel   x-rot acc   y-rot acc   z-rot acc
    22626 -1.84251E-02-1.11896E-04-2.94597E-04-7.87916E-03-5.72446E-06-7.32889E-05-1.37090E-03-2.26134E-04 1.46088E-05



 n o d a l   p r i n t   o u t   f o r   t i m e  s t e p   19402                              ( at time 9.6995293E+00 )

 nodal point  x-disp     y-disp      z-disp      x-vel       y-vel       z-vel      x-accl      y-accl      z-accl      x-coor      y-coor      z-coor
    22626  8.63945E-03 2.81791E+00-4.98514E-01 4.98030E-03 1.17439E+00 1.93164E-01 1.13685E-02 2.15861E-01 1.88249E-01 4.66801E+00-2.53729E+01-4.54802E+01



 n o d a l   p r i n t   o u t   f o r   t i m e  s t e p   19402                              ( at time 9.6995293E+00 )

 nodal point  x-rot      y-rot       z-rot       x-rot vel   y-rot vel   z-rot vel   x-rot acc   y-rot acc   z-rot acc
    22626 -1.92185E-02-1.11449E-04-3.01949E-04-7.99699E-03 1.04748E-05-6.46484E-05-1.17845E-03 1.62009E-04 8.64136E-05



 n o d a l   p r i n t   o u t   f o r   t i m e  s t e p   19602                              ( at time 9.7995193E+00 )

 nodal point  x-disp     y-disp      z-disp      x-vel       y-vel       z-vel      x-accl      y-accl      z-accl      x-coor      y-coor      z-coor
    22626  9.22004E-03 2.93637E+00-4.78180E-01 6.00242E-03 1.19464E+00 2.14028E-01 1.02222E-02 2.02475E-01 2.08665E-01 4.66859E+00-2.52545E+01-4.54599E+01



 n o d a l   p r i n t   o u t   f o r   t i m e  s t e p   19602                              ( at time 9.7995193E+00 )

 nodal point  x-rot      y-rot       z-rot       x-rot vel   y-rot vel   z-rot vel   x-rot acc   y-rot acc   z-rot acc
    22626 -2.00246E-02-1.09781E-04-3.08704E-04-8.12554E-03 1.18231E-05-6.95168E-05-1.28554E-03 1.34845E-05-4.86892E-05



 n o d a l   p r i n t   o u t   f o r   t i m e  s t e p   19802                              ( at time 9.8995093E+00 )

 nodal point  x-disp     y-disp      z-disp      x-vel       y-vel       z-vel      x-accl      y-accl      z-accl      x-coor      y-coor      z-coor
    22626  9.76727E-03 3.05680E+00-4.55685E-01 5.63724E-03 1.21401E+00 2.36195E-01-3.65217E-03 1.93778E-01 2.21690E-01 4.66914E+00-2.51340E+01-4.54374E+01



 n o d a l   p r i n t   o u t   f o r   t i m e  s t e p   19802                              ( at time 9.8995093E+00 )

 nodal point  x-rot      y-rot       z-rot       x-rot vel   y-rot vel   z-rot vel   x-rot acc   y-rot acc   z-rot acc
    22626 -2.08444E-02-1.08697E-04-3.14938E-04-8.27106E-03 1.16382E-05-6.30204E-05-1.45539E-03-1.84868E-06 6.49702E-05



 n o d a l   p r i n t   o u t   f o r   t i m e  s t e p   20003                              ( at time 9.9999992E+00 )

 nodal point  x-disp     y-disp      z-disp      x-vel       y-vel       z-vel      x-accl      y-accl      z-accl      x-coor      y-coor      z-coor
[...]
    22626 -3.26858E-02-5.00173E-05-3.77546E-04-9.80244E-03 9.03622E-05-2.99039E-05-6.93654E-04 2.24829E-04 3.39288E-05



 n o d a l   p r i n t   o u t   f o r   t i m e  s t e p   22603                              ( at time 1.1299869E+01 )

 nodal point  x-disp     y-disp      z-disp      x-vel       y-vel       z-vel      x-accl      y-accl      z-accl      x-coor      y-coor      z-coor
    22626  2.30544E-02 4.88184E+00 1.77211E-01 1.31038E-02 1.36271E+00 6.95964E-01 1.19157E-02 7.08061E-02 3.53215E-01 4.68243E+00-2.33090E+01-4.48045E+01



 n o d a l   p r i n t   o u t   f o r   t i m e  s t e p   22603                              ( at time 1.1299869E+01 )

 nodal point  x-rot      y-rot       z-rot       x-rot vel   y-rot vel   z-rot vel   x-rot acc   y-rot acc   z-rot acc
    22626 -3.36700E-02-4.01804E-05-3.79229E-04-9.86979E-03 1.03685E-04-1.39651E-05-6.73529E-04 1.33243E-04 1.59403E-04



 n o d a l   p r i n t   o u t   f o r   t i m e  s t e p   22803                              ( at time 1.1399859E+01 )

 nodal point  x-disp     y-disp      z-disp      x-vel       y-vel       z-vel      x-accl      y-accl      z-accl      x-coor      y-coor      z-coor
    22626  2.43562E-02 5.01837E+00 2.48657E-01 1.31235E-02 1.36788E+00 7.33205E-01 1.96520E-04 5.17373E-02 3.72447E-01 4.68373E+00-2.31725E+01-4.47331E+01



 n o d a l   p r i n t   o u t   f o r   t i m e  s t e p   22803                              ( at time 1.1399859E+01 )

 nodal point  x-rot      y-rot       z-rot       x-rot vel   y-rot vel   z-rot vel   x-rot acc   y-rot acc   z-rot acc
    22626 -3.46611E-02-2.93962E-05-3.79769E-04-9.94243E-03 1.21936E-04-3.31777E-07-7.26449E-04 1.82526E-04 1.36347E-04



 n o d a l   p r i n t   o u t   f o r   t i m e  s t e p   23003                              ( at time 1.1499849E+01 )

 nodal point  x-disp     y-disp      z-disp      x-vel       y-vel       z-vel      x-accl      y-accl      z-accl      x-coor      y-coor      z-coor
    22626  2.57207E-02 5.15536E+00 3.23816E-01 1.37458E-02 1.37272E+00 7.69720E-01 6.22447E-03 4.83669E-02 3.65188E-01 4.68510E+00-2.30355E+01-4.46579E+01



 n o d a l   p r i n t   o u t   f o r   t i m e  s t e p   23003                              ( at time 1.1499849E+01 )

 nodal point  x-rot      y-rot       z-rot       x-rot vel   y-rot vel   z-rot vel   x-rot acc   y-rot acc   z-rot acc
    22626 -3.56579E-02-1.73104E-05-3.80030E-04-9.99542E-03 1.25938E-04 7.74644E-06-5.30004E-04 4.00226E-05 8.07904E-05



 n o d a l   p r i n t   o u t   f o r   t i m e  s t e p   23203                              ( at time 1.1599839E+01 )

 nodal point  x-disp     y-disp      z-disp      x-vel       y-vel       z-vel      x-accl      y-accl      z-accl      x-coor      y-coor      z-coor
    22626  2.71576E-02 5.29281E+00 4.02642E-01 1.48201E-02 1.37615E+00 8.07127E-01 1.07439E-02 3.43036E-02 3.74109E-01 4.68653E+00-2.28980E+01-4.45791E+01



 n o d a l   p r i n t   o u t   f o r   t i m e  s t e p   23203                              ( at time 1.1599839E+01 )

 nodal point  x-rot      y-rot       z-rot       x-rot vel   y-rot vel   z-rot vel   x-rot acc   y-rot acc   z-rot acc
    22626 -3.66603E-02-4.06684E-06-3.78615E-04-1.00524E-02 1.41793E-04 2.34161E-05-5.69897E-04 1.58566E-04 1.56712E-04



 n o d a l   p r i n t   o u t   f o r   t i m e  s t e p   23403                              ( at time 1.1699829E+01 )

 nodal point  x-disp     y-disp      z-disp      x-vel       y-vel       z-vel      x-accl      y-accl      z-accl      x-coor      y-coor      z-coor
    22626  2.86471E-02 5.43057E+00 4.85270E-01 1.50161E-02 1.37906E+00 8.45972E-01 1.95954E-03 2.91234E-02 3.88481E-01 4.68802E+00-2.27603E+01-4.44964E+01



 n o d a l   p r i n t   o u t   f o r   t i m e  s t e p   23403                              ( at time 1.1699829E+01 )

 nodal point  x-rot      y-rot       z-rot       x-rot vel   y-rot vel   z-rot vel   x-rot acc   y-rot acc   z-rot acc
    22626 -3.76687E-02 1.02886E-05-3.75853E-04-1.00986E-02 1.42798E-04 2.42054E-05-4.62458E-04 1.00526E-05 7.89445E-06



 n o d a l   p r i n t   o u t   f o r   t i m e  s t e p   23603                              ( at time 1.1799819E+01 )

 nodal point  x-disp     y-disp      z-disp      x-vel       y-vel       z-vel      x-accl      y-accl      z-accl      x-coor      y-coor      z-coor
    22626  3.01850E-02 5.56859E+00 5.71736E-01 1.57041E-02 1.38182E+00 8.83726E-01 6.88100E-03 2.76498E-02 3.77585E-01 4.68956E+00-2.26222E+01-4.44100E+01



 n o d a l   p r i n t   o u t   f o r   t i m e  s t e p   23603                              ( at time 1.1799819E+01 )

 nodal point  x-rot      y-rot       z-rot       x-rot vel   y-rot vel   z-rot vel   x-rot acc   y-rot acc   z-rot acc
    22626 -3.86805E-02 2.54998E-05-3.73490E-04-1.01438E-02 1.57030E-04 3.41678E-05-4.51476E-04 1.42337E-04 9.96338E-05



 n o d a l   p r i n t   o u t   f o r   t i m e  s t e p   23803                              ( at time 1.1899809E+01 )

 nodal point  x-disp     y-disp      z-disp      x-vel       y-vel       z-vel      x-accl      y-accl      z-accl      x-coor      y-coor      z-coor
    22626  3.18559E-02 5.70676E+00 6.62146E-01 1.76147E-02 1.38206E+00 9.24101E-01 1.91078E-02 2.37847E-03 4.03793E-01 4.69123E+00-2.24841E+01-4.43196E+01



 n o d a l   p r i n t   o u t   f o r   t i m e  s t e p   23803                              ( at time 1.1899809E+01 )

 nodal point  x-rot      y-rot       z-rot       x-rot vel   y-rot vel   z-rot vel   x-rot acc   y-rot acc   z-rot acc
    22626 -3.96982E-02 4.21289E-05-3.69043E-04-1.02186E-02 1.72362E-04 5.82048E-05-7.47713E-04 1.53335E-04 2.40394E-04



 n o d a l   p r i n t   o u t   f o r   t i m e  s t e p   24003                              ( at time 1.1999799E+01 )

 nodal point  x-disp     y-disp      z-disp      x-vel       y-vel       z-vel      x-accl      y-accl      z-accl      x-coor      y-coor      z-coor
    22626  3.36626E-02 5.84506E+00 7.56512E-01 1.86184E-02 1.38398E+00 9.62774E-01 1.00380E-02 1.92089E-02 3.86764E-01 4.69304E+00-2.23458E+01-4.42252E+01



 n o d a l   p r i n t   o u t   f o r   t i m e  s t e p   24003                              ( at time 1.1999799E+01 )

 nodal point  x-rot      y-rot       z-rot       x-rot vel   y-rot vel   z-rot vel   x-rot acc   y-rot acc   z-rot acc
    22626 -4.07214E-02 6.06329E-05-3.62702E-04-1.02514E-02 1.81125E-04 6.10786E-05-3.28874E-04 8.76315E-05 2.87409E-05



 n o d a l   p r i n t   o u t   f o r   t i m e  s t e p   24203                              ( at time 1.2099789E+01 )

 nodal point  x-disp     y-disp      z-disp      x-vel       y-vel       z-vel      x-accl      y-accl      z-accl      x-coor      y-coor      z-coor
    22626  3.54775E-02 5.98351E+00 8.54727E-01 1.86862E-02 1.38531E+00 1.00163E+00 6.77904E-04 1.33146E-02 3.88610E-01 4.69485E+00-2.22073E+01-4.41270E+01



 n o d a l   p r i n t   o u t   f o r   t i m e  s t e p   24203                              ( at time 1.2099789E+01 )

 nodal point  x-rot      y-rot       z-rot       x-rot vel   y-rot vel   z-rot vel   x-rot acc   y-rot acc   z-rot acc
    22626 -4.17481E-02 7.91484E-05-3.56204E-04-1.02918E-02 1.94511E-04 8.10737E-05-4.03732E-04 1.33875E-04 1.99971E-04



 n o d a l   p r i n t   o u t   f o r   t i m e  s t e p   24403                              ( at time 1.2199779E+01 )

 nodal point  x-disp     y-disp      z-disp      x-vel       y-vel       z-vel      x-accl      y-accl      z-accl      x-coor      y-coor      z-coor
    22626  3.74662E-02 6.12202E+00 9.56919E-01 2.10521E-02 1.38550E+00 1.04217E+00 2.36620E-02 1.85626E-03 4.05386E-01 4.69684E+00-2.20688E+01-4.40248E+01



 n o d a l   p r i n t   o u t   f o r   t i m e  s t e p   24403                              ( at time 1.2199779E+01 )

 nodal point  x-rot      y-rot       z-rot       x-rot vel   y-rot vel   z-rot vel   x-rot acc   y-rot acc   z-rot acc
    22626 -4.27800E-02 1.00559E-04-3.46279E-04-1.03411E-02 2.22876E-04 1.13391E-04-4.92771E-04 2.83678E-04 3.23205E-04



 n o d a l   p r i n t   o u t   f o r   t i m e  s t e p   24603                              ( at time 1.2299769E+01 )

 nodal point  x-disp     y-disp      z-disp      x-vel       y-vel       z-vel      x-accl      y-accl      z-accl      x-coor      y-coor      z-coor
    22626  3.96272E-02 6.26060E+00 1.06300E+00 2.12926E-02 1.38679E+00 1.07896E+00 2.40520E-03 1.28842E-02 3.68006E-01 4.69900E+00-2.19302E+01-4.39187E+01



 n o d a l   p r i n t   o u t   f o r   t i m e  s t e p   24603                              ( at time 1.2299769E+01 )

 nodal point  x-rot      y-rot       z-rot       x-rot vel   y-rot vel   z-rot vel   x-rot acc   y-rot acc   z-rot acc
    22626 -4.38166E-02 1.23746E-04-3.35004E-04-1.03924E-02 2.31252E-04 9.49627E-05-5.13024E-04 8.37699E-05-1.84304E-04



 n o d a l   p r i n t   o u t   f o r   t i m e  s t e p   24803                              ( at time 1.2399759E+01 )

 nodal point  x-disp     y-disp      z-disp      x-vel       y-vel       z-vel      x-accl      y-accl      z-accl      x-coor      y-coor      z-coor
    22626  4.17696E-02 6.39930E+00 1.17284E+00 2.26125E-02 1.38734E+00 1.11825E+00 1.31996E-02 5.49610E-03 3.92896E-01 4.70114E+00-2.17915E+01-4.38089E+01



 n o d a l   p r i n t   o u t   f o r   t i m e  s t e p   24803                              ( at time 1.2399759E+01 )

 nodal point  x-rot      y-rot       z-rot       x-rot vel   y-rot vel   z-rot vel   x-rot acc   y-rot acc   z-rot acc
    22626 -4.48578E-02 1.46283E-04-3.23333E-04-1.04452E-02 2.42098E-04 1.33848E-04-5.27974E-04 1.08467E-04 3.88888E-04



 n o d a l   p r i n t   o u t   f o r   t i m e  s t e p   25003                              ( at time 1.2499749E+01 )

 nodal point  x-disp     y-disp      z-disp      x-vel       y-vel       z-vel      x-accl      y-accl      z-accl      x-coor      y-coor      z-coor
    22626  4.41477E-02 6.53806E+00 1.28658E+00 2.45828E-02 1.38859E+00 1.15600E+00 1.97054E-02 1.25123E-02 3.77576E-01 4.70352E+00-2.16528E+01-4.36951E+01



 n o d a l   p r i n t   o u t   f o r   t i m e  s t e p   25003                              ( at time 1.2499749E+01 )

 nodal point  x-rot      y-rot       z-rot       x-rot vel   y-rot vel   z-rot vel   x-rot acc   y-rot acc   z-rot acc
    22626 -4.59040E-02 1.72240E-04-3.06877E-04-1.04836E-02 2.82171E-04 1.76442E-04-3.84126E-04 4.00776E-04 4.25987E-04



 n o d a l   p r i n t   o u t   f o r   t i m e  s t e p   25203                              ( at time 1.2599739E+01 )

 nodal point  x-disp     y-disp      z-disp      x-vel       y-vel       z-vel      x-accl      y-accl      z-accl      x-coor      y-coor      z-coor
    22626  4.66908E-02 6.67690E+00 1.40401E+00 2.46280E-02 1.38765E+00 1.19273E+00 4.52147E-04-9.39822E-03 3.67344E-01 4.70607E+00-2.15139E+01-4.35777E+01



 n o d a l   p r i n t   o u t   f o r   t i m e  s t e p   25203                              ( at time 1.2599739E+01 )

 nodal point  x-rot      y-rot       z-rot       x-rot vel   y-rot vel   z-rot vel   x-rot acc   y-rot acc   z-rot acc
    22626 -4.69532E-02 1.99868E-04-2.90473E-04-1.05150E-02 2.58238E-04 1.55487E-04-3.14009E-04-2.39354E-04-2.09571E-04



 n o d a l   p r i n t   o u t   f o r   t i m e  s t e p   25403                              ( at time 1.2699729E+01 )

 nodal point  x-disp     y-disp      z-disp      x-vel       y-vel       z-vel      x-accl      y-accl      z-accl      x-coor      y-coor      z-coor
    22626  4.91040E-02 6.81573E+00 1.52519E+00 2.56882E-02 1.38870E+00 1.23033E+00 1.06025E-02 1.04903E-02 3.76018E-01 4.70848E+00-2.13751E+01-4.34565E+01



 n o d a l   p r i n t   o u t   f o r   t i m e  s t e p   25403                              ( at time 1.2699729E+01 )

 nodal point  x-rot      y-rot       z-rot       x-rot vel   y-rot vel   z-rot vel   x-rot acc   y-rot acc   z-rot acc
    22626 -4.80064E-02 2.26291E-04-2.72928E-04-1.05635E-02 2.90570E-04 2.08814E-04-4.85035E-04 3.23345E-04 5.33320E-04



 n o d a l   p r i n t   o u t   f o r   t i m e  s t e p   25603                              ( at time 1.2799719E+01 )

 nodal point  x-disp     y-disp      z-disp      x-vel       y-vel       z-vel      x-accl      y-accl      z-accl      x-coor      y-coor      z-coor
    22626  5.17631E-02 6.95462E+00 1.65015E+00 2.76389E-02 1.38886E+00 1.26782E+00 1.95092E-02 1.64645E-03 3.74908E-01 4.71114E+00-2.12362E+01-4.33316E+01



 n o d a l   p r i n t   o u t   f o r   t i m e  s t e p   25603                              ( at time 1.2799719E+01 )

 nodal point  x-rot      y-rot       z-rot       x-rot vel   y-rot vel   z-rot vel   x-rot acc   y-rot acc   z-rot acc
    22626 -4.90644E-02 2.58197E-04-2.49707E-04-1.06083E-02 3.44410E-04 2.49794E-04-4.48673E-04 5.38463E-04 4.09842E-04



 n o d a l   p r i n t   o u t   f o r   t i m e  s t e p   25803                              ( at time 1.2899709E+01 )

 nodal point  x-disp     y-disp      z-disp      x-vel       y-vel       z-vel      x-accl      y-accl      z-accl      x-coor      y-coor      z-coor
    22626  5.46101E-02 7.09353E+00 1.77863E+00 2.68834E-02 1.38987E+00 1.30190E+00-7.55601E-03 1.00897E-02 3.40875E-01 4.71398E+00-2.10973E+01-4.32031E+01



 n o d a l   p r i n t   o u t   f o r   t i m e  s t e p   25803                              ( at time 1.2899709E+01 )

 nodal point  x-rot      y-rot       z-rot       x-rot vel   y-rot vel   z-rot vel   x-rot acc   y-rot acc   z-rot acc
    22626 -5.01258E-02 2.91905E-04-2.26491E-04-1.06377E-02 3.14015E-04 2.34045E-04-2.93443E-04-3.03989E-04-1.57499E-04



 n o d a l   p r i n t   o u t   f o r   t i m e  s t e p   26003                              ( at time 1.2999699E+01 )

 nodal point  x-disp     y-disp      z-disp      x-vel       y-vel       z-vel      x-accl      y-accl      z-accl      x-coor      y-coor      z-coor
    22626  5.72444E-02 7.23241E+00 1.91069E+00 2.80765E-02 1.38914E+00 1.33942E+00 1.19330E-02-7.28800E-03 3.75199E-01 4.71662E+00-2.09584E+01-4.30710E+01



 n o d a l   p r i n t   o u t   f o r   t i m e  s t e p   26003                              ( at time 1.2999699E+01 )

 nodal point  x-rot      y-rot       z-rot       x-rot vel   y-rot vel   z-rot vel   x-rot acc   y-rot acc   z-rot acc
    22626 -5.11914E-02 3.22307E-04-2.03631E-04-1.06893E-02 3.29570E-04 2.50818E-04-5.16228E-04 1.55566E-04 1.67745E-04



 n o d a l   p r i n t   o u t   f o r   t i m e  s t e p   26203                              ( at time 1.3099689E+01 )

 nodal point  x-disp     y-disp      z-disp      x-vel       y-vel       z-vel      x-accl      y-accl      z-accl      x-coor      y-coor      z-coor
    22626  6.00936E-02 7.37139E+00 2.04644E+00 3.05581E-02 1.39027E+00 1.37496E+00 2.48178E-02 1.12509E-02 3.55498E-01 4.71947E+00-2.08194E+01-4.29353E+01



 n o d a l   p r i n t   o u t   f o r   t i m e  s t e p   26203                              ( at time 1.3099689E+01 )

 nodal point  x-rot      y-rot       z-rot       x-rot vel   y-rot vel   z-rot vel   x-rot acc   y-rot acc   z-rot acc
    22626 -5.22629E-02 3.58164E-04-1.75867E-04-1.07270E-02 3.76306E-04 2.89317E-04-3.76814E-04 4.67412E-04 3.85029E-04



 n o d a l   p r i n t   o u t   f o r   t i m e  s t e p   26403                              ( at time 1.3199679E+01 )

 nodal point  x-disp     y-disp      z-disp      x-vel       y-vel       z-vel      x-accl      y-accl      z-accl      x-coor      y-coor      z-coor
    22626  6.33194E-02 7.51040E+00 2.18546E+00 3.08698E-02 1.39052E+00 1.40647E+00 3.11716E-03 2.53343E-03 3.15048E-01 4.72269E+00-2.06804E+01-4.27963E+01



 n o d a l   p r i n t   o u t   f o r   t i m e  s t e p   26403                              ( at time 1.3199679E+01 )

 nodal point  x-rot      y-rot       z-rot       x-rot vel   y-rot vel   z-rot vel   x-rot acc   y-rot acc   z-rot acc
    22626 -5.33373E-02 3.96841E-04-1.46503E-04-1.07512E-02 3.60502E-04 3.05598E-04-2.42650E-04-1.58058E-04 1.62820E-04



 n o d a l   p r i n t   o u t   f o r   t i m e  s t e p   26603                              ( at time 1.3299669E+01 )

 nodal point  x-disp     y-disp      z-disp      x-vel       y-vel       z-vel      x-accl      y-accl      z-accl      x-coor      y-coor      z-coor
    22626  6.62478E-02 7.64948E+00 2.32781E+00 2.95204E-02 1.39051E+00 1.44168E+00-1.34954E-02-6.67640E-05 3.52201E-01 4.72562E+00-2.05413E+01-4.26539E+01



 n o d a l   p r i n t   o u t   f o r   t i m e  s t e p   26603                              ( at time 1.3299669E+01 )

 nodal point  x-rot      y-rot       z-rot       x-rot vel   y-rot vel   z-rot vel   x-rot acc   y-rot acc   z-rot acc
    22626 -5.44151E-02 4.30331E-04-1.19890E-04-1.08184E-02 3.29385E-04 2.60307E-04-6.71225E-04-3.11199E-04-4.52957E-04



 n o d a l   p r i n t   o u t   f o r   t i m e  s t e p   26803                              ( at time 1.3399659E+01 )

 nodal point  x-disp     y-disp      z-disp      x-vel       y-vel       z-vel      x-accl      y-accl      z-accl      x-coor      y-coor      z-coor
    22626  6.91952E-02 7.78852E+00 2.47377E+00 3.13801E-02 1.39107E+00 1.47619E+00 1.85996E-02 5.57241E-03 3.45140E-01 4.72857E+00-2.04023E+01-4.25079E+01



 n o d a l   p r i n t   o u t   f o r   t i m e  s t e p   26803                              ( at time 1.3399659E+01 )

 nodal point  x-rot      y-rot       z-rot       x-rot vel   y-rot vel   z-rot vel   x-rot acc   y-rot acc   z-rot acc
    22626 -5.55000E-02 4.67071E-04-9.04724E-05-1.08868E-02 4.17794E-04 3.04738E-04-6.84470E-04 8.84180E-04 4.44364E-04



 n o d a l   p r i n t   o u t   f o r   t i m e  s t e p   27003                              ( at time 1.3499649E+01 )

 nodal point  x-disp     y-disp      z-disp      x-vel       y-vel       z-vel      x-accl      y-accl      z-accl      x-coor      y-coor      z-coor
    22626  7.25196E-02 7.92772E+00 2.62280E+00 3.23619E-02 1.39264E+00 1.50392E+00 9.81866E-03 1.56585E-02 2.77327E-01 4.73189E+00-2.02631E+01-4.23589E+01



 n o d a l   p r i n t   o u t   f o r   t i m e  s t e p   27003                              ( at time 1.3499649E+01 )

 nodal point  x-rot      y-rot       z-rot       x-rot vel   y-rot vel   z-rot vel   x-rot acc   y-rot acc   z-rot acc
    22626 -5.65885E-02 5.08424E-04-5.93114E-05-1.09074E-02 3.83258E-04 3.11960E-04-2.06439E-04-3.45394E-04 7.22238E-05



 n o d a l   p r i n t   o u t   f o r   t i m e  s t e p   27203                              ( at time 1.3599639E+01 )

 nodal point  x-disp     y-disp      z-disp      x-vel       y-vel       z-vel      x-accl      y-accl      z-accl      x-coor      y-coor      z-coor
    22626  7.56150E-02 8.06696E+00 2.77490E+00 2.96746E-02 1.39136E+00 1.53679E+00-2.68752E-02-1.27543E-02 3.28736E-01 4.73499E+00-2.01239E+01-4.22068E+01



 n o d a l   p r i n t   o u t   f o r   t i m e  s t e p   27203                              ( at time 1.3599639E+01 )

 nodal point  x-rot      y-rot       z-rot       x-rot vel   y-rot vel   z-rot vel   x-rot acc   y-rot acc   z-rot acc
    22626 -5.76786E-02 5.45406E-04-2.82439E-05-1.09347E-02 3.55458E-04 2.89231E-04-2.72905E-04-2.78025E-04-2.27317E-04



 n o d a l   p r i n t   o u t   f o r   t i m e  s t e p   27403                              ( at time 1.3699629E+01 )

 nodal point  x-disp     y-disp      z-disp      x-vel       y-vel       z-vel      x-accl      y-accl      z-accl      x-coor      y-coor      z-coor
    22626  7.86172E-02 8.20614E+00 2.93021E+00 3.15808E-02 1.39105E+00 1.56905E+00 1.90633E-02-3.12479E-03 3.22613E-01 4.73799E+00-1.99847E+01-4.20515E+01



 n o d a l   p r i n t   o u t   f o r   t i m e  s t e p   27403                              ( at time 1.3699629E+01 )

 nodal point  x-rot      y-rot       z-rot       x-rot vel   y-rot vel   z-rot vel   x-rot acc   y-rot acc   z-rot acc
    22626 -5.87738E-02 5.82376E-04 1.52947E-06-1.10022E-02 3.81842E-04 2.75646E-04-6.74783E-04 2.63868E-04-1.35864E-04
