 LSTC 50th% Full_FE H-III Dummy (Beta Version, February 17, 2019)        
                    ls-dyna smp s R16 R16.0_619_d222963 date 03/18/2025

{BEGIN LEGEND}
 Entity #        Title
        1     Upper_Neck_Force_INJURY                                              
{END LEGEND}



 line#1  section#     time        x-force     y-force     z-force    magnitude
 line#2  resultant  moments       x-moment    y-moment    z-moment   magnitude
 line#3  centroids                x           y           z            area  
           1    0.00000E+00     0.0000E+00  0.0000E+00  0.0000E+00  0.0000E+00
ac ID =   33377                 0.0000E+00  0.0000E+00  0.0000E+00  0.0000E+00
                               -3.7437E-01  1.0501E+01 -4.6940E+01  0.0000E+00

           1    1.00490E-01     1.3539E-04 -4.9882E-03  2.5980E-01  2.5985E-01
ac ID =   33377                 4.2546E-01 -1.2521E+00 -2.7109E-02  1.3227E+00
                               -3.7387E-01  1.0590E+01 -4.6886E+01  2.5147E+03

           1    2.00480E-01    -4.4300E-02  5.0114E-04  4.4141E-01  4.4362E-01
ac ID =   33377                 3.0908E-01 -1.5974E+00  2.2520E-02  1.6272E+00
                               -3.7386E-01  1.0591E+01 -4.6888E+01  2.5147E+03

           1    3.00470E-01     1.4699E-02 -3.0439E-03  2.1749E-01  2.1801E-01
ac ID =   33377                 2.1469E-02 -3.4563E-01  6.5183E-02  3.5238E-01
                               -3.7382E-01  1.0591E+01 -4.6889E+01  2.5147E+03

           1    4.00460E-01     2.6982E-03  1.0714E-02  8.8111E-02  8.8801E-02
ac ID =   33377                -4.9645E-01 -9.4743E-01  1.9873E-03  1.0696E+00
                               -3.7383E-01  1.0592E+01 -4.6890E+01  2.5147E+03

           1    5.00450E-01    -4.0830E-02  4.5537E-03  1.6200E-01  1.6712E-01
ac ID =   33377                -3.9321E-01 -1.5070E+00 -1.0820E-01  1.5612E+00
                               -3.7385E-01  1.0594E+01 -4.6893E+01  2.5147E+03

           1    6.00440E-01    -1.1768E-02  3.9049E-03  3.4471E-01  3.4493E-01
ac ID =   33377                 9.3054E-02 -1.3527E+00 -4.0741E-02  1.3565E+00
                               -3.7385E-01  1.0595E+01 -4.6897E+01  2.5147E+03

           1    7.00430E-01     9.1256E-04 -5.0309E-03  2.9777E-01  2.9781E-01
ac ID =   33377                 1.2603E-01 -5.6118E-01  8.3249E-02  5.8115E-01
                               -3.7389E-01  1.0597E+01 -4.6901E+01  2.5147E+03

           1    8.00420E-01    -3.0300E-02 -7.9828E-04  1.0408E-01  1.0841E-01
ac ID =   33377                 7.1974E-02 -1.0791E+00  4.0529E-02  1.0822E+00
                               -3.7393E-01  1.0599E+01 -4.6905E+01  2.5147E+03

           1    9.00410E-01    -4.0073E-02  1.0913E-03  6.5900E-02  7.7135E-02
ac ID =   33377                 8.0739E-02 -1.1087E+00 -1.0560E-02  1.1117E+00
                               -3.7396E-01  1.0601E+01 -4.6909E+01  2.5147E+03

           1    1.00040E+00     1.2202E-02 -2.6839E-03  2.2604E-01  2.2639E-01
ac ID =   33377                 3.2804E-01 -3.7900E-01 -5.3055E-02  5.0405E-01
                               -3.7396E-01  1.0604E+01 -4.6915E+01  2.5147E+03

           1    1.10039E+00     1.0390E-03  6.2084E-05  2.7897E-01  2.7897E-01
ac ID =   33377                 2.8661E-01 -9.0384E-01 -3.8781E-02  9.4899E-01
                               -3.7393E-01  1.0606E+01 -4.6921E+01  2.5147E+03

           1    1.20038E+00    -3.2795E-02  2.9636E-03  1.3911E-01  1.4295E-01
ac ID =   33377                -2.9349E-01 -1.2908E+00 -1.1481E-02  1.3238E+00
                               -3.7389E-01  1.0609E+01 -4.6926E+01  2.5147E+03

           1    1.30037E+00    -1.4863E-02  6.6532E-03  8.5016E-02  8.6561E-02
ac ID =   33377                -3.2015E-01 -1.0343E+00  5.4455E-02  1.0841E+00
                               -3.7385E-01  1.0612E+01 -4.6932E+01  2.5147E+03

           1    1.40036E+00     6.3308E-03  3.9642E-03  1.9128E-01  1.9142E-01
ac ID =   33377                -3.3182E-01 -1.0073E+00  4.9174E-02  1.0617E+00
                               -3.7377E-01  1.0615E+01 -4.6939E+01  2.5147E+03

           1    1.50035E+00    -2.7792E-02  9.9881E-03  3.4167E-01  3.4294E-01
ac ID =   33377                -2.4618E-01 -1.7497E+00  3.2704E-02  1.7672E+00
                               -3.7371E-01  1.0619E+01 -4.6947E+01  2.5147E+03

           1    1.60034E+00    -2.5395E-02  4.3181E-03  2.4074E-01  2.4211E-01
ac ID =   33377                -1.2585E-01 -1.6564E+00  7.6242E-02  1.6629E+00
                               -3.7363E-01  1.0622E+01 -4.6954E+01  2.5147E+03

           1    1.70033E+00    -3.5884E-03 -3.9106E-03  6.8003E-02  6.8210E-02
ac ID =   33377                -1.0525E-01 -7.5127E-01  9.9690E-02  7.6513E-01
                               -3.7352E-01  1.0625E+01 -4.6962E+01  2.5147E+03

           1    1.80032E+00    -2.1838E-02  2.3527E-03  8.1908E-02  8.4802E-02
ac ID =   33377                 7.9975E-02 -1.2636E+00  1.6298E-01  1.2766E+00
                               -3.7342E-01  1.0629E+01 -4.6970E+01  2.5147E+03

           1    1.90031E+00    -1.6078E-02 -1.7811E-03  2.0013E-01  2.0078E-01
ac ID =   33377                 1.6661E-01 -1.0796E+00 -4.1676E-02  1.0931E+00
                               -3.7333E-01  1.0633E+01 -4.6979E+01  2.5147E+03

           1    2.00030E+00    -4.3824E-03  9.4303E-03  1.6452E-01  1.6485E-01
ac ID =   33377                -9.7251E-02 -7.0716E-01 -9.9698E-02  7.2074E-01
                               -3.7321E-01  1.0637E+01 -4.6988E+01  2.5147E+03

           1    2.10029E+00    -3.0231E-02  8.2290E-03  1.5145E-02  3.4800E-02
ac ID =   33377                -2.9411E-01 -1.0337E+00  1.1634E-01  1.0810E+00
                               -3.7300E-01  1.0641E+01 -4.6997E+01  2.5147E+03

           1    2.20028E+00    -2.2365E-02  6.3382E-03  1.3062E-02  2.6664E-02
ac ID =   33377                -4.4867E-01 -1.0147E+00 -9.6487E-03  1.1095E+00
                               -3.7272E-01  1.0645E+01 -4.7006E+01  2.5147E+03

           1    2.30027E+00    -1.1211E-02 -3.0553E-03  1.5665E-01  1.5708E-01
ac ID =   33377                -3.0055E-01 -1.2525E+00 -1.3868E-01  1.2955E+00
                               -3.7249E-01  1.0650E+01 -4.7017E+01  2.5147E+03

           1    2.40026E+00    -1.2301E-02 -1.4509E-02  2.0194E-01  2.0283E-01
ac ID =   33377                -5.1413E-02 -1.4116E+00  5.7330E-02  1.4137E+00
                               -3.7239E-01  1.0655E+01 -4.7027E+01  2.5147E+03

           1    2.50025E+00    -1.8699E-02  1.1291E-02  7.3204E-03  2.3038E-02
ac ID =   33377                -4.7533E-01 -1.0970E+00  1.0838E-01  1.2005E+00
                               -3.7240E-01  1.0659E+01 -4.7037E+01  2.5147E+03

           1    2.60024E+00    -2.4557E-02  5.3754E-03 -6.2787E-02  6.7632E-02
ac ID =   33377                -9.5372E-02 -6.7910E-01 -9.1888E-02  6.9189E-01
                               -3.7239E-01  1.0663E+01 -4.7047E+01  2.5147E+03

           1    2.70023E+00    -2.7450E-02  6.9225E-03  3.1894E-02  4.2645E-02
ac ID =   33377                -1.0513E-01 -8.2163E-01 -1.7801E-02  8.2852E-01
                               -3.7225E-01  1.0668E+01 -4.7059E+01  2.5147E+03

           1    2.80022E+00    -3.5548E-03 -6.4007E-03  7.6864E-02  7.7212E-02
ac ID =   33377                 2.7047E-01 -5.3005E-01 -7.3642E-02  5.9961E-01
                               -3.7209E-01  1.0673E+01 -4.7070E+01  2.5147E+03

           1    2.90021E+00     3.1907E-04 -7.3143E-03 -5.3807E-03  9.0858E-03
ac ID =   33377                 4.7536E-02 -2.5278E-01 -5.4741E-02  2.6297E-01
                               -3.7198E-01  1.0677E+01 -4.7080E+01  2.5147E+03

           1    3.00020E+00    -2.7433E-02  5.7062E-03 -7.5137E-02  8.0191E-02
ac ID =   33377                -2.7739E-01 -5.2248E-01  6.7788E-02  5.9541E-01
                               -3.7193E-01  1.0682E+01 -4.7091E+01  2.5147E+03

           1    3.10019E+00    -8.4517E-03  1.5206E-02  1.9809E-02  2.6364E-02
ac ID =   33377                -3.8657E-01 -6.7581E-01 -4.1963E-02  7.7969E-01
                               -3.7189E-01  1.0686E+01 -4.7103E+01  2.5147E+03

           1    3.20018E+00     4.5878E-03 -2.9174E-03  8.8851E-02  8.9017E-02
ac ID =   33377                -6.3346E-02 -6.5158E-01  1.5708E-02  6.5484E-01
                               -3.7182E-01  1.0691E+01 -4.7114E+01  2.5147E+03

           1    3.30017E+00    -1.2688E-02 -5.2538E-03  2.3410E-02  2.7141E-02
ac ID =   33377                 6.4085E-02 -9.7234E-01  1.3701E-01  9.8404E-01
                               -3.7175E-01  1.0695E+01 -4.7126E+01  2.5147E+03

           1    3.40016E+00    -8.5763E-03  1.0248E-02 -8.3512E-02  8.4575E-02
ac ID =   33377                -5.8537E-01 -5.2397E-01  1.1299E-01  7.9370E-01
                               -3.7173E-01  1.0700E+01 -4.7137E+01  2.5147E+03

           1    3.50015E+00    -5.1453E-03  6.0921E-03 -1.1156E-01  1.1185E-01
ac ID =   33377                -1.3402E-01 -1.5847E-01 -7.2991E-02  2.2001E-01
                               -3.7170E-01  1.0704E+01 -4.7148E+01  2.5147E+03

           1    3.60014E+00    -1.3167E-02 -1.4757E-02 -2.7186E-02  3.3618E-02
ac ID =   33377                 2.8222E-01 -1.1274E-01 -1.2292E-01  3.2782E-01
                               -3.7162E-01  1.0709E+01 -4.7160E+01  2.5147E+03

           1    3.70013E+00    -3.1165E-03  2.3554E-04 -2.2917E-02  2.3129E-02
ac ID =   33377                 2.3155E-01  7.7782E-02  2.9004E-02  2.4599E-01
                               -3.7161E-01  1.0713E+01 -4.7172E+01  2.5147E+03

           1    3.80012E+00     7.7016E-03  1.6976E-02 -1.1538E-01  1.1687E-01
ac ID =   33377                -4.5821E-01  4.2374E-01 -1.5634E-02  6.2431E-01
                               -3.7158E-01  1.0717E+01 -4.7183E+01  2.5147E+03

           1    3.90011E+00     4.6717E-03 -2.8010E-03 -1.7850E-01  1.7858E-01
ac ID =   33377                -1.1562E-02  7.5014E-01 -7.3015E-02  7.5378E-01
                               -3.7143E-01  1.0721E+01 -4.7195E+01  2.5147E+03

           1    4.00010E+00    -1.0747E-02 -6.5730E-03 -1.1333E-01  1.1403E-01
ac ID =   33377                -1.5666E-01  8.1186E-02 -1.2199E-01  2.1451E-01
                               -3.7127E-01  1.0725E+01 -4.7206E+01  2.5147E+03

           1    4.10009E+00    -4.5471E-03  3.4811E-04 -8.6529E-02  8.6649E-02
ac ID =   33377                -2.1619E-01  2.2647E-03 -2.4892E-01  3.2971E-01
                               -3.7121E-01  1.0729E+01 -4.7218E+01  2.5147E+03

           1    4.20008E+00    -3.9327E-04  1.2964E-02 -1.3255E-01  1.3318E-01
ac ID =   33377                -5.2488E-01  5.4392E-03 -3.0342E-02  5.2579E-01
                               -3.7114E-01  1.0733E+01 -4.7229E+01  2.5147E+03

           1    4.30007E+00     3.1443E-03 -6.2714E-03 -2.4371E-01  2.4381E-01
ac ID =   33377                -8.3123E-03  4.5173E-01  1.3446E-02  4.5201E-01
                               -3.7110E-01  1.0736E+01 -4.7239E+01  2.5147E+03

           1    4.40006E+00     8.9213E-03  7.6789E-04 -2.0922E-01  2.0942E-01
ac ID =   33377                -5.1092E-02  7.2483E-01  5.1419E-02  7.2844E-01
                               -3.7105E-01  1.0740E+01 -4.7250E+01  2.5147E+03

           1    4.50005E+00     9.0985E-03 -6.5377E-03 -1.1524E-01  1.1578E-01
ac ID =   33377                 3.8594E-01  6.2631E-01 -6.8756E-02  7.3888E-01
                               -3.7106E-01  1.0744E+01 -4.7261E+01  2.5147E+03

           1    4.60004E+00     2.5644E-02 -2.2038E-04 -1.6950E-01  1.7143E-01
ac ID =   33377                 1.0093E-01  8.8342E-01 -9.2980E-02  8.9401E-01
                               -3.7106E-01  1.0748E+01 -4.7272E+01  2.5147E+03

           1    4.70003E+00     2.7493E-02  1.5881E-03 -2.5864E-01  2.6010E-01
ac ID =   33377                -7.8908E-03  7.6305E-01 -7.2376E-02  7.6651E-01
                               -3.7106E-01  1.0752E+01 -4.7282E+01  2.5147E+03

           1    4.80002E+00     2.4759E-02  5.4118E-03 -2.8718E-01  2.8830E-01
ac ID =   33377                -2.7378E-01  8.4076E-01  8.1893E-02  8.8800E-01
                               -3.7100E-01  1.0756E+01 -4.7292E+01  2.5147E+03

           1    4.90001E+00     2.7509E-02  2.1024E-03 -2.3022E-01  2.3187E-01
ac ID =   33377                -3.5736E-01  8.5170E-01  1.7379E-01  9.3984E-01
                               -3.7091E-01  1.0761E+01 -4.7303E+01  2.5147E+03

           1    5.00000E+00     3.2288E-02 -3.9729E-04 -2.2018E-01  2.2254E-01
ac ID =   33377                -3.4503E-01  8.3794E-01  6.1337E-02  9.0827E-01
                               -3.7086E-01  1.0766E+01 -4.7313E+01  2.5147E+03

           1    5.10049E+00     4.2952E-02  1.4695E-02 -3.1870E-01  3.2192E-01
ac ID =   33377                -7.1275E-01  1.1742E+00  1.9879E-02  1.3738E+00
                               -3.7079E-01  1.0772E+01 -4.7324E+01  2.5147E+03

           1    5.20048E+00     5.3913E-02 -4.0301E-04 -3.6595E-01  3.6990E-01
ac ID =   33377                -2.0926E-01  1.5342E+00 -1.4304E-01  1.5550E+00
                               -3.7073E-01  1.0779E+01 -4.7334E+01  2.5147E+03

           1    5.30047E+00     5.9073E-02 -3.4169E-04 -3.4118E-01  3.4625E-01
ac ID =   33377                -1.0757E-01  1.6543E+00  1.6691E-02  1.6579E+00
                               -3.7067E-01  1.0787E+01 -4.7345E+01  2.5147E+03

           1    5.40046E+00     6.5880E-02  3.7619E-04 -3.2895E-01  3.3548E-01
ac ID =   33377                 1.4638E-01  1.8827E+00  2.6613E-01  1.9071E+00
                               -3.7055E-01  1.0796E+01 -4.7356E+01  2.5147E+03

           1    5.50045E+00     8.0723E-02  8.2433E-03 -4.3205E-01  4.3960E-01
ac ID =   33377                -1.9699E-01  2.2948E+00 -1.1256E-02  2.3033E+00
                               -3.7041E-01  1.0806E+01 -4.7368E+01  2.5147E+03

           1    5.60044E+00     7.2243E-02  2.1450E-03 -5.1512E-01  5.2017E-01
ac ID =   33377                -1.8029E-01  2.2862E+00 -1.8104E-01  2.3004E+00
                               -3.7024E-01  1.0817E+01 -4.7379E+01  2.5147E+03

           1    5.70043E+00     7.7343E-02 -3.3307E-03 -5.2547E-01  5.3115E-01
ac ID =   33377                -7.0393E-02  2.3696E+00 -1.8882E-01  2.3782E+00
                               -3.7005E-01  1.0830E+01 -4.7391E+01  2.5147E+03

           1    5.80042E+00     9.1694E-02  6.5740E-03 -5.0001E-01  5.0839E-01
ac ID =   33377                -5.6920E-01  2.3855E+00 -2.3994E-02  2.4526E+00
                               -3.6990E-01  1.0845E+01 -4.7403E+01  2.5147E+03

           1    5.90041E+00     9.7870E-02  1.9614E-02 -5.1032E-01  5.1999E-01
ac ID =   33377                -4.9405E-01  2.7350E+00  4.6890E-02  2.7796E+00
                               -3.6977E-01  1.0861E+01 -4.7415E+01  2.5147E+03

           1    6.00040E+00     1.0070E-01 -3.9166E-03 -5.9846E-01  6.0688E-01
ac ID =   33377                -4.6926E-01  2.8447E+00  1.6635E-01  2.8879E+00
                               -3.6953E-01  1.0879E+01 -4.7428E+01  2.5147E+03

           1    6.10039E+00     1.0939E-01  5.1384E-03 -6.1327E-01  6.2298E-01
ac ID =   33377                -2.9726E-01  2.9361E+00 -6.9134E-02  2.9519E+00
                               -3.6933E-01  1.0899E+01 -4.7441E+01  2.5147E+03

           1    6.20038E+00     1.1738E-01 -2.7463E-03 -5.9016E-01  6.0173E-01
ac ID =   33377                -4.1158E-01  2.7969E+00 -1.9917E-01  2.8340E+00
                               -3.6915E-01  1.0921E+01 -4.7455E+01  2.5147E+03

           1    6.30037E+00     1.1701E-01  1.3008E-02 -6.2636E-01  6.3733E-01
ac ID =   33377                -3.3909E-01  2.8942E+00 -5.1676E-02  2.9144E+00
                               -3.6896E-01  1.0946E+01 -4.7470E+01  2.5147E+03

           1    6.40036E+00     1.1127E-01 -2.4955E-03 -7.2704E-01  7.3551E-01
ac ID =   33377                -4.1598E-01  3.0965E+00  1.8306E-01  3.1297E+00
                               -3.6869E-01  1.0972E+01 -4.7484E+01  2.5147E+03

           1    6.50035E+00     1.3672E-01  6.6845E-03 -7.9463E-01  8.0634E-01
ac ID =   33377                -3.4076E-01  3.8429E+00  1.7057E-01  3.8618E+00
                               -3.6847E-01  1.1001E+01 -4.7500E+01  2.5147E+03

           1    6.60034E+00     1.3621E-01  1.4449E-02 -7.7809E-01  7.9006E-01
ac ID =   33377                -7.5819E-01  4.1435E+00  1.7281E-01  4.2159E+00
                               -3.6821E-01  1.1032E+01 -4.7516E+01  2.5147E+03

           1    6.70033E+00     1.3292E-01  2.5836E-03 -7.8870E-01  7.9983E-01
ac ID =   33377                -5.5045E-01  4.0873E+00 -9.3220E-02  4.1253E+00
                               -3.6791E-01  1.1066E+01 -4.7533E+01  2.5147E+03

           1    6.80032E+00     1.5021E-01  6.2515E-03 -8.6744E-01  8.8038E-01
ac ID =   33377                -5.0039E-01  4.5840E+00  8.7093E-03  4.6112E+00
                               -3.6764E-01  1.1103E+01 -4.7551E+01  2.5147E+03

           1    6.90031E+00     1.5260E-01  1.1982E-02 -9.3343E-01  9.4590E-01
ac ID =   33377                -7.4117E-01  4.7795E+00  1.8962E-01  4.8403E+00
                               -3.6735E-01  1.1142E+01 -4.7569E+01  2.5147E+03

           1    7.00030E+00     1.4788E-01  1.4791E-02 -9.4642E-01  9.5802E-01
ac ID =   33377                -6.9837E-01  4.7242E+00  1.1431E-01  4.7769E+00
                               -3.6702E-01  1.1184E+01 -4.7587E+01  2.5147E+03

           1    7.10029E+00     1.6210E-01  3.4573E-03 -9.8331E-01  9.9659E-01
ac ID =   33377                -5.8233E-01  4.8830E+00 -5.3325E-02  4.9179E+00
                               -3.6664E-01  1.1228E+01 -4.7607E+01  2.5147E+03

           1    7.20028E+00     1.6630E-01  3.6098E-03 -1.0729E+00  1.0857E+00
ac ID =   33377                -4.6291E-01  5.1916E+00 -9.9291E-02  5.2131E+00
                               -3.6632E-01  1.1276E+01 -4.7626E+01  2.5147E+03

           1    7.30027E+00     1.6423E-01  7.4018E-03 -1.1665E+00  1.1780E+00
ac ID =   33377                -6.6205E-01  5.5336E+00 -1.1357E-01  5.5742E+00
                               -3.6598E-01  1.1326E+01 -4.7647E+01  2.5147E+03

           1    7.40026E+00     1.8441E-01  1.4420E-02 -1.2207E+00  1.2347E+00
ac ID =   33377                -8.2167E-01  6.1598E+00  3.3421E-02  6.2145E+00
                               -3.6565E-01  1.1379E+01 -4.7667E+01  2.5147E+03

           1    7.50025E+00     1.9098E-01  5.3368E-04 -1.2200E+00  1.2349E+00
ac ID =   33377                -3.0178E-01  6.5617E+00  1.9459E-01  6.5715E+00
                               -3.6528E-01  1.1435E+01 -4.7689E+01  2.5147E+03

           1    7.60024E+00     1.9392E-01  4.5344E-03 -1.2739E+00  1.2886E+00
ac ID =   33377                -6.1042E-01  6.5523E+00  1.0280E-01  6.5815E+00
                               -3.6486E-01  1.1493E+01 -4.7710E+01  2.5147E+03

           1    7.70023E+00     2.0474E-01  1.1921E-02 -1.3392E+00  1.3549E+00
ac ID =   33377                -7.1434E-01  6.8625E+00 -2.0833E-01  6.9027E+00
                               -3.6450E-01  1.1555E+01 -4.7732E+01  2.5147E+03

           1    7.80022E+00     1.9914E-01  9.3702E-03 -1.3819E+00  1.3962E+00
ac ID =   33377                -7.1394E-01  6.8285E+00 -2.7749E-01  6.8713E+00
                               -3.6407E-01  1.1619E+01 -4.7754E+01  2.5147E+03

           1    7.90021E+00     2.0305E-01  5.8095E-03 -1.4239E+00  1.4383E+00
ac ID =   33377                -6.5548E-01  6.9925E+00 -2.8256E-01  7.0289E+00
                               -3.6365E-01  1.1686E+01 -4.7776E+01  2.5147E+03

           1    8.00020E+00     2.1410E-01  1.5884E-02 -1.4836E+00  1.4990E+00
ac ID =   33377                -8.6054E-01  7.6143E+00  5.8797E-03  7.6628E+00
                               -3.6321E-01  1.1756E+01 -4.7798E+01  2.5147E+03

           1    8.10019E+00     2.2902E-01  9.4036E-03 -1.5919E+00  1.6083E+00
ac ID =   33377                -8.7647E-01  8.2969E+00  1.4447E-01  8.3443E+00
                               -3.6276E-01  1.1829E+01 -4.7820E+01  2.5147E+03

           1    8.20018E+00     2.2929E-01 -2.2404E-03 -1.6648E+00  1.6805E+00
ac ID =   33377                -4.8097E-01  8.8197E+00 -1.2649E-01  8.8337E+00
                               -3.6231E-01  1.1905E+01 -4.7843E+01  2.5147E+03

           1    8.30017E+00     2.4134E-01  1.6902E-02 -1.6989E+00  1.7161E+00
ac ID =   33377                -1.0084E+00  9.1918E+00 -2.5276E-01  9.2504E+00
                               -3.6183E-01  1.1983E+01 -4.7865E+01  2.5147E+03

           1    8.40016E+00     2.5343E-01  9.8906E-03 -1.7535E+00  1.7717E+00
ac ID =   33377                -7.3219E-01  9.8346E+00 -1.5677E-01  9.8631E+00
                               -3.6130E-01  1.2065E+01 -4.7887E+01  2.5147E+03

           1    8.50015E+00     2.4429E-01 -7.6701E-03 -1.8309E+00  1.8471E+00
ac ID =   33377                -3.8737E-01  9.7789E+00 -1.4436E-01  9.7876E+00
                               -3.6072E-01  1.2149E+01 -4.7909E+01  2.5147E+03

           1    8.60014E+00     2.5900E-01  8.1598E-03 -1.9250E+00  1.9423E+00
ac ID =   33377                -8.2437E-01  1.0463E+01 -1.3006E-01  1.0496E+01
                               -3.6019E-01  1.2235E+01 -4.7931E+01  2.5147E+03

           1    8.70013E+00     2.6473E-01  1.6608E-02 -1.9831E+00  2.0007E+00
ac ID =   33377                -1.0111E+00  1.0747E+01 -1.8831E-01  1.0796E+01
                               -3.5967E-01  1.2325E+01 -4.7952E+01  2.5147E+03

           1    8.80012E+00     2.6066E-01 -2.4050E-04 -2.0572E+00  2.0737E+00
ac ID =   33377                -5.1001E-01  1.0870E+01 -2.3474E-01  1.0884E+01
                               -3.5912E-01  1.2417E+01 -4.7973E+01  2.5147E+03

           1    8.90011E+00     2.7468E-01  2.7727E-03 -2.1384E+00  2.1560E+00
ac ID =   33377                -7.2183E-01  1.1542E+01  2.5969E-02  1.1565E+01
                               -3.5854E-01  1.2512E+01 -4.7993E+01  2.5147E+03

           1    9.00010E+00     3.0093E-01  2.1017E-02 -2.2271E+00  2.2474E+00
ac ID =   33377                -1.0867E+00  1.2417E+01  2.9973E-01  1.2468E+01
                               -3.5801E-01  1.2610E+01 -4.8013E+01  2.5147E+03

           1    9.10009E+00     2.9277E-01 -3.7644E-03 -2.2938E+00  2.3124E+00
ac ID =   33377                -4.9473E-01  1.2730E+01  2.4535E-01  1.2742E+01
                               -3.5739E-01  1.2710E+01 -4.8031E+01  2.5147E+03

           1    9.20008E+00     3.0240E-01  3.3550E-03 -2.3469E+00  2.3663E+00
ac ID =   33377                -7.4187E-01  1.2985E+01  1.3192E-01  1.3007E+01
                               -3.5675E-01  1.2812E+01 -4.8049E+01  2.5147E+03

           1    9.30007E+00     3.1806E-01  9.2340E-03 -2.4193E+00  2.4401E+00
ac ID =   33377                -7.8164E-01  1.3639E+01  1.7655E-02  1.3661E+01
                               -3.5613E-01  1.2917E+01 -4.8066E+01  2.5147E+03

           1    9.40006E+00     3.1076E-01  8.3820E-03 -2.5028E+00  2.5220E+00
ac ID =   33377                -7.7028E-01  1.3639E+01 -2.1358E-01  1.3662E+01
                               -3.5549E-01  1.3025E+01 -4.8082E+01  2.5147E+03

           1    9.50005E+00     3.1887E-01 -3.4297E-03 -2.5803E+00  2.6000E+00
ac ID =   33377                -6.8329E-01  1.4318E+01 -1.3350E-01  1.4335E+01
                               -3.5477E-01  1.3134E+01 -4.8097E+01  2.5147E+03

           1    9.60004E+00     3.3179E-01  1.1288E-02 -2.6178E+00  2.6388E+00
ac ID =   33377                -9.5305E-01  1.4948E+01  8.0694E-03  1.4978E+01
                               -3.5407E-01  1.3246E+01 -4.8111E+01  2.5147E+03

           1    9.70003E+00     3.4942E-01  1.1906E-02 -2.6728E+00  2.6955E+00
ac ID =   33377                -8.4803E-01  1.5629E+01 -1.0179E-01  1.5652E+01
                               -3.5336E-01  1.3361E+01 -4.8123E+01  2.5147E+03

           1    9.80002E+00     3.3800E-01  6.6613E-03 -2.7427E+00  2.7635E+00
ac ID =   33377                -9.5001E-01  1.5887E+01  1.3970E-01  1.5916E+01
                               -3.5252E-01  1.3477E+01 -4.8134E+01  2.5147E+03

           1    9.90001E+00     3.4806E-01 -8.7478E-04 -2.8009E+00  2.8225E+00
ac ID =   33377                -7.6119E-01  1.6318E+01  9.7997E-02  1.6336E+01
                               -3.5171E-01  1.3595E+01 -4.8143E+01  2.5147E+03

           1    1.00005E+01     3.6587E-01  1.5693E-02 -2.8698E+00  2.8931E+00
ac ID =   33377                -9.5724E-01  1.7087E+01 -1.0002E-01  1.7114E+01
                               -3.5087E-01  1.3716E+01 -4.8150E+01  2.5147E+03

           1    1.01005E+01     3.5177E-01  2.5752E-03 -2.9449E+00  2.9658E+00
ac ID =   33377                -8.9178E-01  1.7198E+01  1.3067E-01  1.7221E+01
                               -3.4998E-01  1.3837E+01 -4.8155E+01  2.5147E+03

           1    1.02005E+01     3.6086E-01  2.6265E-03 -3.0249E+00  3.0463E+00
ac ID =   33377                -9.4008E-01  1.7921E+01  8.7336E-02  1.7946E+01
                               -3.4905E-01  1.3961E+01 -4.8158E+01  2.5147E+03

           1    1.03005E+01     3.8272E-01  1.0920E-02 -3.0620E+00  3.0858E+00
ac ID =   33377                -9.4952E-01  1.8411E+01 -4.0355E-01  1.8440E+01
                               -3.4806E-01  1.4085E+01 -4.8159E+01  2.5147E+03

           1    1.04005E+01     3.7414E-01  1.0965E-03 -3.1150E+00  3.1374E+00
ac ID =   33377                -8.3766E-01  1.8637E+01 -3.6956E-01  1.8660E+01
                               -3.4697E-01  1.4211E+01 -4.8157E+01  2.5147E+03

           1    1.05004E+01     3.7127E-01  1.1405E-02 -3.1511E+00  3.1729E+00
ac ID =   33377                -1.1971E+00  1.8973E+01 -9.0548E-02  1.9011E+01
                               -3.4589E-01  1.4338E+01 -4.8153E+01  2.5147E+03

           1    1.06004E+01     3.9003E-01  4.1231E-03 -3.1824E+00  3.2062E+00
ac ID =   33377                -9.3460E-01  1.9505E+01  5.3987E-02  1.9527E+01
                               -3.4475E-01  1.4466E+01 -4.8145E+01  2.5147E+03

           1    1.07004E+01     3.8387E-01  3.8201E-03 -3.2338E+00  3.2565E+00
ac ID =   33377                -1.1586E+00  1.9787E+01  1.3364E-01  1.9822E+01
                               -3.4356E-01  1.4595E+01 -4.8135E+01  2.5147E+03

           1    1.08004E+01     3.8230E-01  1.1437E-02 -3.2797E+00  3.3019E+00
ac ID =   33377                -8.1092E-01  1.9700E+01 -1.0368E-01  1.9717E+01
                               -3.4243E-01  1.4724E+01 -4.8121E+01  2.5147E+03

           1    1.09004E+01     4.0229E-01  6.1406E-03 -3.3464E+00  3.3705E+00
ac ID =   33377                -1.0758E+00  2.0713E+01  2.9269E-02  2.0741E+01
                               -3.4120E-01  1.4854E+01 -4.8104E+01  2.5147E+03

           1    1.10004E+01     4.0521E-01  1.2976E-02 -3.3886E+00  3.4128E+00
ac ID =   33377                -1.0584E+00  2.0989E+01 -1.0283E-01  2.1016E+01
                               -3.3997E-01  1.4985E+01 -4.8084E+01  2.5147E+03

           1    1.11004E+01     4.1783E-01 -9.9478E-04 -3.4381E+00  3.4634E+00
ac ID =   33377                -8.4211E-01  2.1889E+01 -6.4826E-02  2.1905E+01
                               -3.3869E-01  1.5117E+01 -4.8061E+01  2.5147E+03

           1    1.12004E+01     4.2814E-01 -4.4880E-03 -3.4653E+00  3.4917E+00
ac ID =   33377                -7.0953E-01  2.2643E+01 -1.0141E-01  2.2654E+01
                               -3.3742E-01  1.5249E+01 -4.8034E+01  2.5147E+03

           1    1.13004E+01     4.2994E-01 -1.8544E-03 -3.4834E+00  3.5098E+00
ac ID =   33377                -8.0437E-01  2.2648E+01 -1.8277E-01  2.2663E+01
                               -3.3614E-01  1.5382E+01 -4.8005E+01  2.5147E+03

           1    1.14004E+01     4.3468E-01  2.0916E-03 -3.5099E+00  3.5367E+00
ac ID =   33377                -7.6899E-01  2.2907E+01 -1.1005E-01  2.2920E+01
                               -3.3485E-01  1.5515E+01 -4.7971E+01  2.5147E+03

           1    1.15003E+01     4.4082E-01 -2.1138E-04 -3.5124E+00  3.5400E+00
ac ID =   33377                -7.6705E-01  2.3073E+01  1.6979E-01  2.3086E+01
                               -3.3350E-01  1.5649E+01 -4.7935E+01  2.5147E+03

           1    1.16003E+01     4.3555E-01 -1.3982E-04 -3.5362E+00  3.5629E+00
ac ID =   33377                -8.5478E-01  2.3469E+01 -3.0962E-02  2.3484E+01
                               -3.3220E-01  1.5783E+01 -4.7895E+01  2.5147E+03

           1    1.17003E+01     4.3767E-01  9.7574E-03 -3.5652E+00  3.5920E+00
ac ID =   33377                -1.0049E+00  2.3709E+01 -1.7200E-01  2.3731E+01
                               -3.3085E-01  1.5917E+01 -4.7851E+01  2.5147E+03

           1    1.18003E+01     4.6213E-01  8.1671E-03 -3.6095E+00  3.6389E+00
ac ID =   33377                -1.0231E+00  2.4600E+01 -2.5575E-02  2.4622E+01
                               -3.2945E-01  1.6052E+01 -4.7803E+01  2.5147E+03

           1    1.19003E+01     4.5544E-01  9.4574E-03 -3.6129E+00  3.6415E+00
ac ID =   33377                -7.5058E-01  2.4865E+01 -7.7098E-02  2.4876E+01
                               -3.2803E-01  1.6186E+01 -4.7752E+01  2.5147E+03

           1    1.20003E+01     4.5311E-01  5.9233E-03 -3.5873E+00  3.6159E+00
ac ID =   33377                -9.4329E-01  2.4859E+01 -7.5564E-02  2.4877E+01
                               -3.2651E-01  1.6321E+01 -4.7697E+01  2.5147E+03

           1    1.21003E+01     4.8130E-01 -6.2989E-03 -3.6039E+00  3.6359E+00
ac ID =   33377                -5.7673E-01  2.5584E+01 -2.9697E-02  2.5591E+01
                               -3.2498E-01  1.6456E+01 -4.7639E+01  2.5147E+03

           1    1.22003E+01     4.7381E-01 -4.7418E-03 -3.5832E+00  3.6144E+00
ac ID =   33377                -3.6955E-01  2.5587E+01 -2.4007E-01  2.5591E+01
                               -3.2348E-01  1.6591E+01 -4.7576E+01  2.5147E+03

           1    1.23003E+01     4.6122E-01  9.2910E-03 -3.5420E+00  3.5720E+00
ac ID =   33377                -9.1584E-01  2.5211E+01 -1.3573E-01  2.5228E+01
                               -3.2186E-01  1.6726E+01 -4.7510E+01  2.5147E+03

           1    1.24003E+01     4.7158E-01 -6.4722E-03 -3.5236E+00  3.5550E+00
ac ID =   33377                -5.0359E-01  2.5278E+01  2.9583E-01  2.5285E+01
                               -3.2018E-01  1.6860E+01 -4.7441E+01  2.5147E+03

           1    1.25002E+01     4.7845E-01 -1.0280E-02 -3.5027E+00  3.5352E+00
ac ID =   33377                -1.1234E-01  2.5440E+01  1.5885E-01  2.5441E+01
                               -3.1856E-01  1.6995E+01 -4.7367E+01  2.5147E+03

           1    1.26002E+01     4.6801E-01  1.9019E-02 -3.5026E+00  3.5337E+00
ac ID =   33377                -1.1488E+00  2.5692E+01 -2.7954E-01  2.5720E+01
                               -3.1681E-01  1.7130E+01 -4.7290E+01  2.5147E+03

           1    1.27002E+01     4.7408E-01 -4.7731E-04 -3.4770E+00  3.5092E+00
ac ID =   33377                -7.4957E-01  2.5836E+01 -2.0839E-01  2.5848E+01
                               -3.1511E-01  1.7265E+01 -4.7210E+01  2.5147E+03

           1    1.28002E+01     4.9727E-01 -2.1384E-02 -3.4303E+00  3.4662E+00
ac ID =   33377                 3.7263E-01  2.6622E+01  1.6891E-01  2.6625E+01
                               -3.1344E-01  1.7400E+01 -4.7126E+01  2.5147E+03

           1    1.29002E+01     4.9783E-01  8.4573E-03 -3.4121E+00  3.4483E+00
ac ID =   33377                -7.1092E-01  2.6667E+01  4.1662E-03  2.6676E+01
                               -3.1171E-01  1.7535E+01 -4.7038E+01  2.5147E+03

           1    1.30002E+01     4.7067E-01  1.2229E-02 -3.3796E+00  3.4123E+00
ac ID =   33377                -5.7748E-01  2.6089E+01  2.7682E-03  2.6095E+01
                               -3.1005E-01  1.7669E+01 -4.6947E+01  2.5147E+03

           1    1.31002E+01     4.8364E-01 -3.4089E-02 -3.3192E+00  3.3545E+00
ac ID =   33377                 5.6754E-01  2.6392E+01 -2.7668E-01  2.6399E+01
                               -3.0830E-01  1.7804E+01 -4.6853E+01  2.5147E+03

           1    1.32002E+01     4.8895E-01 -1.4250E-04 -3.2867E+00  3.3229E+00
ac ID =   33377                -2.2846E-01  2.6264E+01 -6.3848E-01  2.6273E+01
                               -3.0648E-01  1.7939E+01 -4.6755E+01  2.5147E+03

           1    1.33002E+01     4.8956E-01  3.6161E-02 -3.2542E+00  3.2910E+00
ac ID =   33377                -1.0481E+00  2.6325E+01 -3.1738E-01  2.6347E+01
                               -3.0475E-01  1.8074E+01 -4.6654E+01  2.5147E+03

           1    1.34002E+01     4.5285E-01 -2.7153E-02 -3.1623E+00  3.1947E+00
ac ID =   33377                 4.1211E-01  2.5783E+01 -1.9422E-01  2.5787E+01
                               -3.0294E-01  1.8208E+01 -4.6550E+01  2.5147E+03

           1    1.35001E+01     4.9344E-01 -2.2477E-02 -3.1457E+00  3.1843E+00
ac ID =   33377                 4.3416E-03  2.6387E+01 -2.0822E-01  2.6388E+01
                               -3.0106E-01  1.8343E+01 -4.6443E+01  2.5147E+03

           1    1.36001E+01     4.9078E-01  3.3271E-02 -3.1027E+00  3.1415E+00
ac ID =   33377                -1.1083E+00  2.6273E+01 -4.9123E-01  2.6301E+01
                               -2.9939E-01  1.8478E+01 -4.6333E+01  2.5147E+03

           1    1.37001E+01     4.5871E-01  3.6740E-03 -2.9572E+00  2.9926E+00
ac ID =   33377                 1.6933E-01  2.5334E+01 -6.0134E-01  2.5342E+01
                               -2.9760E-01  1.8612E+01 -4.6220E+01  2.5147E+03

