 LSTC 50th% Full_FE H-III Dummy (Beta Version, February 17, 2019)        
                    ls-dyna smp s R16 R16.0_619_d222963 date 03/18/2025

{BEGIN LEGEND}
 Entity #        Title
    22626                                                                                     
{END LEGEND}




 n o d a l   p r i n t   o u t   f o r   t i m e  s t e p       1                              ( at time 0.0000000E+00 )

 nodal point  x-disp     y-disp      z-disp      x-vel       y-vel       z-vel      x-accl      y-accl      z-accl      x-coor      y-coor      z-coor
    22626  0.00000E+00 0.00000E+00 0.00000E+00 0.00000E+00 0.00000E+00 0.00000E+00 0.00000E+00 0.00000E+00 0.00000E+00 4.65938E+00-2.81908E+01-4.49817E+01



 n o d a l   p r i n t   o u t   f o r   t i m e  s t e p       1                              ( at time 0.0000000E+00 )

 nodal point  x-rot      y-rot       z-rot       x-rot vel   y-rot vel   z-rot vel   x-rot acc   y-rot acc   z-rot acc
    22626  0.00000E+00 0.00000E+00 0.00000E+00 0.00000E+00 0.00000E+00 0.00000E+00 0.00000E+00 0.00000E+00 0.00000E+00



 n o d a l   p r i n t   o u t   f o r   t i m e  s t e p     201                              ( at time 9.9989993E-02 )

 nodal point  x-disp     y-disp      z-disp      x-vel       y-vel       z-vel      x-accl      y-accl      z-accl      x-coor      y-coor      z-coor
    22626  2.73575E-07 1.73669E-06-5.34278E-05 4.19752E-05 2.55596E-04-1.46819E-03 4.19794E-04 2.55621E-03-1.46834E-02 4.65938E+00-2.81908E+01-4.49818E+01



 n o d a l   p r i n t   o u t   f o r   t i m e  s t e p     201                              ( at time 9.9989993E-02 )

 nodal point  x-rot      y-rot       z-rot       x-rot vel   y-rot vel   z-rot vel   x-rot acc   y-rot acc   z-rot acc
    22626 -5.98981E-08-8.38467E-09-5.45921E-09-5.86955E-06-9.69951E-07-9.27110E-07-5.87014E-05-9.70048E-06-9.27203E-06



 n o d a l   p r i n t   o u t   f o r   t i m e  s t e p     401                              ( at time 1.9997999E-01 )

 nodal point  x-disp     y-disp      z-disp      x-vel       y-vel       z-vel      x-accl      y-accl      z-accl      x-coor      y-coor      z-coor
    22626  1.73164E-05 3.61744E-04-6.67586E-04 2.99103E-05 7.81063E-03-1.21528E-02-1.20661E-04 7.55579E-02-1.06857E-01 4.65939E+00-2.81905E+01-4.49824E+01



 n o d a l   p r i n t   o u t   f o r   t i m e  s t e p     401                              ( at time 1.9997999E-01 )

 nodal point  x-rot      y-rot       z-rot       x-rot vel   y-rot vel   z-rot vel   x-rot acc   y-rot acc   z-rot acc
    22626 -2.81967E-06-3.37266E-07-3.34657E-07-3.93830E-05-1.75846E-06-2.27962E-06-3.35168E-04-7.88592E-06-1.35264E-05



 n o d a l   p r i n t   o u t   f o r   t i m e  s t e p     601                              ( at time 2.9996998E-01 )

 nodal point  x-disp     y-disp      z-disp      x-vel       y-vel       z-vel      x-accl      y-accl      z-accl      x-coor      y-coor      z-coor
    22626  2.73701E-05 1.24009E-03-2.33844E-03 4.22350E-04 8.44897E-03-1.92545E-02 3.92479E-03 6.38400E-03-7.10232E-02 4.65940E+00-2.81896E+01-4.49841E+01



 n o d a l   p r i n t   o u t   f o r   t i m e  s t e p     601                              ( at time 2.9996998E-01 )

 nodal point  x-rot      y-rot       z-rot       x-rot vel   y-rot vel   z-rot vel   x-rot acc   y-rot acc   z-rot acc
    22626 -5.38426E-06-3.90374E-07-6.42185E-07-1.54639E-05-5.49640E-06-6.69032E-06 2.39215E-04-3.73831E-05-4.41114E-05



 n o d a l   p r i n t   o u t   f o r   t i m e  s t e p     801                              ( at time 3.9995997E-01 )

 nodal point  x-disp     y-disp      z-disp      x-vel       y-vel       z-vel      x-accl      y-accl      z-accl      x-coor      y-coor      z-coor
    22626  2.60355E-05 2.16242E-03-4.28289E-03-3.15443E-04 1.07413E-02-2.10856E-02-7.37866E-03 2.29261E-02-1.83129E-02 4.65940E+00-2.81887E+01-4.49860E+01



 n o d a l   p r i n t   o u t   f o r   t i m e  s t e p     801                              ( at time 3.9995997E-01 )

 nodal point  x-rot      y-rot       z-rot       x-rot vel   y-rot vel   z-rot vel   x-rot acc   y-rot acc   z-rot acc
    22626 -7.61699E-06-1.24999E-06-9.81390E-07-4.49076E-05-6.21487E-06-1.49406E-06-2.94467E-04-7.18536E-06 5.19677E-05



 n o d a l   p r i n t   o u t   f o r   t i m e  s t e p    1001                              ( at time 4.9994997E-01 )

 nodal point  x-disp     y-disp      z-disp      x-vel       y-vel       z-vel      x-accl      y-accl      z-accl      x-coor      y-coor      z-coor
    22626  3.67012E-06 3.43652E-03-6.74478E-03-2.41336E-04 1.41520E-02-2.87074E-02 7.41143E-04 3.41104E-02-7.62261E-02 4.65938E+00-2.81874E+01-4.49885E+01



 n o d a l   p r i n t   o u t   f o r   t i m e  s t e p    1001                              ( at time 4.9994997E-01 )

 nodal point  x-rot      y-rot       z-rot       x-rot vel   y-rot vel   z-rot vel   x-rot acc   y-rot acc   z-rot acc
    22626 -1.35610E-05-1.16563E-06-9.49750E-07-8.41029E-05 3.27307E-06 4.12513E-06-3.91992E-04 9.48889E-05 5.61975E-05



 n o d a l   p r i n t   o u t   f o r   t i m e  s t e p    1201                              ( at time 5.9993996E-01 )

 nodal point  x-disp     y-disp      z-disp      x-vel       y-vel       z-vel      x-accl      y-accl      z-accl      x-coor      y-coor      z-coor
    22626 -8.54188E-07 5.01224E-03-9.71613E-03 4.79709E-05 1.67047E-02-3.09917E-02 2.89336E-03 2.55288E-02-2.28453E-02 4.65937E+00-2.81858E+01-4.49914E+01



 n o d a l   p r i n t   o u t   f o r   t i m e  s t e p    1201                              ( at time 5.9993996E-01 )

 nodal point  x-rot      y-rot       z-rot       x-rot vel   y-rot vel   z-rot vel   x-rot acc   y-rot acc   z-rot acc
    22626 -2.02868E-05-8.87106E-07-9.58219E-07-5.89429E-05 3.86684E-06-2.03905E-06 2.51625E-04 5.93824E-06-6.16480E-05



 n o d a l   p r i n t   o u t   f o r   t i m e  s t e p    1401                              ( at time 6.9992995E-01 )

 nodal point  x-disp     y-disp      z-disp      x-vel       y-vel       z-vel      x-accl      y-accl      z-accl      x-coor      y-coor      z-coor
    22626 -5.09814E-05 6.85037E-03-1.31710E-02-4.93616E-04 1.96593E-02-3.89678E-02-5.41641E-03 2.95490E-02-7.97691E-02 4.65932E+00-2.81840E+01-4.49949E+01



 n o d a l   p r i n t   o u t   f o r   t i m e  s t e p    1401                              ( at time 6.9992995E-01 )

 nodal point  x-rot      y-rot       z-rot       x-rot vel   y-rot vel   z-rot vel   x-rot acc   y-rot acc   z-rot acc
    22626 -2.62088E-05-9.01059E-07-6.32803E-07-7.08707E-05 3.29150E-07 3.88488E-06-1.19290E-04-3.53804E-05 5.92452E-05



 n o d a l   p r i n t   o u t   f o r   t i m e  s t e p    1601                              ( at time 7.9991994E-01 )

 nodal point  x-disp     y-disp      z-disp      x-vel       y-vel       z-vel      x-accl      y-accl      z-accl      x-coor      y-coor      z-coor
    22626 -8.02740E-05 8.98673E-03-1.74642E-02-4.95162E-04 2.21636E-02-4.51197E-02-1.54632E-05 2.50463E-02-6.15244E-02 4.65929E+00-2.81818E+01-4.49992E+01



 n o d a l   p r i n t   o u t   f o r   t i m e  s t e p    1601                              ( at time 7.9991994E-01 )

 nodal point  x-rot      y-rot       z-rot       x-rot vel   y-rot vel   z-rot vel   x-rot acc   y-rot acc   z-rot acc
    22626 -3.43995E-05-8.78793E-07-5.15427E-07-9.19047E-05-4.79364E-06 1.60495E-06-2.10361E-04-5.12330E-05-2.28015E-05



 n o d a l   p r i n t   o u t   f o r   t i m e  s t e p    1801                              ( at time 8.9990994E-01 )

 nodal point  x-disp     y-disp      z-disp      x-vel       y-vel       z-vel      x-accl      y-accl      z-accl      x-coor      y-coor      z-coor
    22626 -1.16855E-04 1.12542E-02-2.19906E-02-2.88325E-04 2.40397E-02-4.55873E-02 2.06858E-03 1.87620E-02-4.67742E-03 4.65926E+00-2.81796E+01-4.50037E+01



 n o d a l   p r i n t   o u t   f o r   t i m e  s t e p    1801                              ( at time 8.9990994E-01 )

 nodal point  x-rot      y-rot       z-rot       x-rot vel   y-rot vel   z-rot vel   x-rot acc   y-rot acc   z-rot acc
    22626 -4.28186E-05-9.57522E-07-5.02569E-07-8.26715E-05 1.99257E-06-7.27765E-07 9.23413E-05 6.78689E-05-2.33295E-05



 n o d a l   p r i n t   o u t   f o r   t i m e  s t e p    2001                              ( at time 9.9989993E-01 )

 nodal point  x-disp     y-disp      z-disp      x-vel       y-vel       z-vel      x-accl      y-accl      z-accl      x-coor      y-coor      z-coor
    22626 -1.52059E-04 1.37912E-02-2.67304E-02-3.54399E-05 2.65009E-02-5.00343E-02 2.52910E-03 2.46153E-02-4.44742E-02 4.65922E+00-2.81770E+01-4.50084E+01



 n o d a l   p r i n t   o u t   f o r   t i m e  s t e p    2001                              ( at time 9.9989993E-01 )

 nodal point  x-rot      y-rot       z-rot       x-rot vel   y-rot vel   z-rot vel   x-rot acc   y-rot acc   z-rot acc
    22626 -5.18497E-05-9.08435E-07-4.38014E-07-1.06202E-04 1.19644E-06-3.02098E-06-2.35331E-04-7.96203E-06-2.29345E-05



 n o d a l   p r i n t   o u t   f o r   t i m e  s t e p    2201                              ( at time 1.0998899E+00 )

 nodal point  x-disp     y-disp      z-disp      x-vel       y-vel       z-vel      x-accl      y-accl      z-accl      x-coor      y-coor      z-coor
    22626 -1.59775E-04 1.65321E-02-3.20559E-02-3.44210E-04 2.88810E-02-5.60788E-02-3.08801E-03 2.38032E-02-6.04503E-02 4.65922E+00-2.81743E+01-4.50138E+01



 n o d a l   p r i n t   o u t   f o r   t i m e  s t e p    2201                              ( at time 1.0998899E+00 )

 nodal point  x-rot      y-rot       z-rot       x-rot vel   y-rot vel   z-rot vel   x-rot acc   y-rot acc   z-rot acc
    22626 -6.29467E-05-1.00479E-06-7.50137E-07-1.03946E-04-7.60348E-06-2.07024E-06 2.25676E-05-8.80081E-05 9.50836E-06



 n o d a l   p r i n t   o u t   f o r   t i m e  s t e p    2401                              ( at time 1.1998799E+00 )

 nodal point  x-disp     y-disp      z-disp      x-vel       y-vel       z-vel      x-accl      y-accl      z-accl      x-coor      y-coor      z-coor
    22626 -1.89785E-04 1.94752E-02-3.79327E-02-1.99260E-04 3.02227E-02-6.12098E-02 1.44964E-03 1.34179E-02-5.13157E-02 4.65919E+00-2.81714E+01-4.50197E+01



 n o d a l   p r i n t   o u t   f o r   t i m e  s t e p    2401                              ( at time 1.1998799E+00 )

 nodal point  x-rot      y-rot       z-rot       x-rot vel   y-rot vel   z-rot vel   x-rot acc   y-rot acc   z-rot acc
    22626 -7.29528E-05-1.61434E-06-9.91885E-07-1.01383E-04-7.09439E-06-2.98210E-06 2.56326E-05 5.09137E-06-9.11946E-06



 n o d a l   p r i n t   o u t   f o r   t i m e  s t e p    2601                              ( at time 1.2998699E+00 )

 nodal point  x-disp     y-disp      z-disp      x-vel       y-vel       z-vel      x-accl      y-accl      z-accl      x-coor      y-coor      z-coor
    22626 -2.23887E-04 2.26249E-02-4.42079E-02-2.44427E-04 3.26039E-02-6.40504E-02-4.51710E-04 2.38147E-02-2.84083E-02 4.65915E+00-2.81682E+01-4.50259E+01



 n o d a l   p r i n t   o u t   f o r   t i m e  s t e p    2601                              ( at time 1.2998699E+00 )

 nodal point  x-rot      y-rot       z-rot       x-rot vel   y-rot vel   z-rot vel   x-rot acc   y-rot acc   z-rot acc
    22626 -8.39942E-05-2.17037E-06-1.24647E-06-1.29282E-04-1.11898E-09-1.45927E-06-2.79021E-04 7.09398E-05 1.52298E-05



 n o d a l   p r i n t   o u t   f o r   t i m e  s t e p    2801                              ( at time 1.3998599E+00 )

 nodal point  x-disp     y-disp      z-disp      x-vel       y-vel       z-vel      x-accl      y-accl      z-accl      x-coor      y-coor      z-coor
    22626 -2.51462E-04 2.59923E-02-5.07121E-02-4.51500E-04 3.45156E-02-6.66728E-02-2.07094E-03 1.91191E-02-2.62272E-02 4.65912E+00-2.81648E+01-4.50324E+01



 n o d a l   p r i n t   o u t   f o r   t i m e  s t e p    2801                              ( at time 1.3998599E+00 )

 nodal point  x-rot      y-rot       z-rot       x-rot vel   y-rot vel   z-rot vel   x-rot acc   y-rot acc   z-rot acc
    22626 -9.73990E-05-2.01046E-06-1.34594E-06-1.36971E-04-2.39453E-07 1.76261E-06-7.69017E-05-2.38358E-06 3.22221E-05



 n o d a l   p r i n t   o u t   f o r   t i m e  s t e p    3001                              ( at time 1.4998499E+00 )

 nodal point  x-disp     y-disp      z-disp      x-vel       y-vel       z-vel      x-accl      y-accl      z-accl      x-coor      y-coor      z-coor
    22626 -2.96337E-04 2.95911E-02-5.77242E-02-4.45345E-04 3.72818E-02-7.39885E-02 6.15587E-05 2.76643E-02-7.31642E-02 4.65908E+00-2.81612E+01-4.50394E+01



 n o d a l   p r i n t   o u t   f o r   t i m e  s t e p    3001                              ( at time 1.4998499E+00 )

 nodal point  x-rot      y-rot       z-rot       x-rot vel   y-rot vel   z-rot vel   x-rot acc   y-rot acc   z-rot acc
    22626 -1.10708E-04-2.03042E-06-1.27267E-06-1.28581E-04-1.08283E-06-1.78253E-06 8.39107E-05-8.43466E-06-3.54549E-05



 n o d a l   p r i n t   o u t   f o r   t i m e  s t e p    3201                              ( at time 1.5998399E+00 )

 nodal point  x-disp     y-disp      z-disp      x-vel       y-vel       z-vel      x-accl      y-accl      z-accl      x-coor      y-coor      z-coor
    22626 -3.60102E-04 3.34890E-02-6.54464E-02-5.83263E-04 4.05453E-02-7.97019E-02-1.37932E-03 3.26389E-02-5.71400E-02 4.65901E+00-2.81573E+01-4.50472E+01



 n o d a l   p r i n t   o u t   f o r   t i m e  s t e p    3201                              ( at time 1.5998399E+00 )

 nodal point  x-rot      y-rot       z-rot       x-rot vel   y-rot vel   z-rot vel   x-rot acc   y-rot acc   z-rot acc
    22626 -1.23312E-04-2.14808E-06-1.10020E-06-1.34495E-04-2.95911E-06 3.12265E-06-5.91392E-05-1.87647E-05 4.90567E-05



 n o d a l   p r i n t   o u t   f o r   t i m e  s t e p    3401                              ( at time 1.6998299E+00 )

 nodal point  x-disp     y-disp      z-disp      x-vel       y-vel       z-vel      x-accl      y-accl      z-accl      x-coor      y-coor      z-coor
    22626 -4.21754E-04 3.76415E-02-7.35823E-02-7.30517E-04 4.22406E-02-8.25953E-02-1.47268E-03 1.69540E-02-2.89362E-02 4.65895E+00-2.81532E+01-4.50553E+01



 n o d a l   p r i n t   o u t   f o r   t i m e  s t e p    3401                              ( at time 1.6998299E+00 )

 nodal point  x-rot      y-rot       z-rot       x-rot vel   y-rot vel   z-rot vel   x-rot acc   y-rot acc   z-rot acc
    22626 -1.37611E-04-2.15170E-06-9.11343E-07-1.47633E-04 1.62890E-06 3.92384E-06-1.31402E-04 4.58847E-05 8.01266E-06



 n o d a l   p r i n t   o u t   f o r   t i m e  s t e p    3601                              ( at time 1.7998199E+00 )

 nodal point  x-disp     y-disp      z-disp      x-vel       y-vel       z-vel      x-accl      y-accl      z-accl      x-coor      y-coor      z-coor
    22626 -4.84891E-04 4.19001E-02-8.19598E-02-5.11156E-04 4.32794E-02-8.48713E-02 2.19383E-03 1.03896E-02-2.27623E-02 4.65889E+00-2.81489E+01-4.50637E+01



 n o d a l   p r i n t   o u t   f o r   t i m e  s t e p    3601                              ( at time 1.7998199E+00 )

 nodal point  x-rot      y-rot       z-rot       x-rot vel   y-rot vel   z-rot vel   x-rot acc   y-rot acc   z-rot acc
    22626 -1.52822E-04-2.06294E-06-7.79591E-07-1.49834E-04 1.54010E-06-1.40313E-06-2.20037E-05-8.88041E-07-5.32751E-05



 n o d a l   p r i n t   o u t   f o r   t i m e  s t e p    3801                              ( at time 1.8998099E+00 )

 nodal point  x-disp     y-disp      z-disp      x-vel       y-vel       z-vel      x-accl      y-accl      z-accl      x-coor      y-coor      z-coor
    22626 -5.44142E-04 4.63775E-02-9.06358E-02-5.22422E-04 4.60744E-02-8.88656E-02-1.12669E-04 2.79524E-02-3.99474E-02 4.65883E+00-2.81445E+01-4.50724E+01



 n o d a l   p r i n t   o u t   f o r   t i m e  s t e p    3801                              ( at time 1.8998099E+00 )

 nodal point  x-rot      y-rot       z-rot       x-rot vel   y-rot vel   z-rot vel   x-rot acc   y-rot acc   z-rot acc
    22626 -1.67675E-04-1.85381E-06-6.51503E-07-1.49844E-04-1.56465E-06-5.90887E-07-1.04202E-07-3.10507E-05 8.12325E-06



 n o d a l   p r i n t   o u t   f o r   t i m e  s t e p    4001                              ( at time 1.9997999E+00 )

 nodal point  x-disp     y-disp      z-disp      x-vel       y-vel       z-vel      x-accl      y-accl      z-accl      x-coor      y-coor      z-coor
    22626 -5.95054E-04 5.10271E-02-9.97453E-02-5.47861E-04 4.71668E-02-9.31104E-02-2.54414E-04 1.09255E-02-4.24518E-02 4.65878E+00-2.81398E+01-4.50815E+01



 n o d a l   p r i n t   o u t   f o r   t i m e  s t e p    4001                              ( at time 1.9997999E+00 )

 nodal point  x-rot      y-rot       z-rot       x-rot vel   y-rot vel   z-rot vel   x-rot acc   y-rot acc   z-rot acc
    22626 -1.82768E-04-2.08877E-06-7.02207E-07-1.56280E-04-4.61812E-06-2.46051E-07-6.43639E-05-3.05377E-05 3.44870E-06



 n o d a l   p r i n t   o u t   f o r   t i m e  s t e p    4201                              ( at time 2.0997899E+00 )

 nodal point  x-disp     y-disp      z-disp      x-vel       y-vel       z-vel      x-accl      y-accl      z-accl      x-coor      y-coor      z-coor
    22626 -6.49089E-04 5.57836E-02-1.09162E-01-5.60142E-04 4.81935E-02-9.53005E-02-1.22821E-04 1.02679E-02-2.19032E-02 4.65873E+00-2.81350E+01-4.50909E+01



 n o d a l   p r i n t   o u t   f o r   t i m e  s t e p    4201                              ( at time 2.0997899E+00 )

 nodal point  x-rot      y-rot       z-rot       x-rot vel   y-rot vel   z-rot vel   x-rot acc   y-rot acc   z-rot acc
    22626 -1.97947E-04-2.47928E-06-8.66162E-07-1.49886E-04-1.50151E-06 2.04259E-06 6.39407E-05 3.11692E-05 2.28887E-05



 n o d a l   p r i n t   o u t   f o r   t i m e  s t e p    4401                              ( at time 2.1997798E+00 )

 nodal point  x-disp     y-disp      z-disp      x-vel       y-vel       z-vel      x-accl      y-accl      z-accl      x-coor      y-coor      z-coor
    22626 -7.07830E-04 6.06673E-02-1.18761E-01-4.96288E-04 4.91626E-02-9.67361E-02 6.38596E-04 9.69195E-03-1.43575E-02 4.65867E+00-2.81302E+01-4.51005E+01



 n o d a l   p r i n t   o u t   f o r   t i m e  s t e p    4401                              ( at time 2.1997798E+00 )

 nodal point  x-rot      y-rot       z-rot       x-rot vel   y-rot vel   z-rot vel   x-rot acc   y-rot acc   z-rot acc
    22626 -2.13319E-04-2.58585E-06-8.64110E-07-1.59068E-04-1.59030E-06-1.08575E-06-9.18279E-05-8.87971E-07-3.12866E-05



 n o d a l   p r i n t   o u t   f o r   t i m e  s t e p    4601                              ( at time 2.2997698E+00 )

 nodal point  x-disp     y-disp      z-disp      x-vel       y-vel       z-vel      x-accl      y-accl      z-accl      x-coor      y-coor      z-coor
    22626 -7.62977E-04 6.56142E-02-1.28510E-01-6.44619E-04 5.01886E-02-9.87449E-02-1.48345E-03 1.02611E-02-2.00908E-02 4.65861E+00-2.81252E+01-4.51102E+01



 n o d a l   p r i n t   o u t   f o r   t i m e  s t e p    4601                              ( at time 2.2997698E+00 )

 nodal point  x-rot      y-rot       z-rot       x-rot vel   y-rot vel   z-rot vel   x-rot acc   y-rot acc   z-rot acc
    22626 -2.29839E-04-2.51949E-06-8.73142E-07-1.61235E-04 9.08478E-07-1.00296E-06-2.16679E-05 2.49902E-05 8.28011E-07



 n o d a l   p r i n t   o u t   f o r   t i m e  s t e p    4801                              ( at time 2.3997598E+00 )

 nodal point  x-disp     y-disp      z-disp      x-vel       y-vel       z-vel      x-accl      y-accl      z-accl      x-coor      y-coor      z-coor
    22626 -8.37423E-04 7.07390E-02-1.38609E-01-7.69035E-04 5.20325E-02-1.03266E-01-1.24429E-03 1.84409E-02-4.52192E-02 4.65854E+00-2.81201E+01-4.51203E+01



 n o d a l   p r i n t   o u t   f o r   t i m e  s t e p    4801                              ( at time 2.3997598E+00 )

 nodal point  x-rot      y-rot       z-rot       x-rot vel   y-rot vel   z-rot vel   x-rot acc   y-rot acc   z-rot acc
    22626 -2.45590E-04-2.51140E-06-6.02048E-07-1.55284E-04-1.80927E-08 4.19992E-06 5.95110E-05-9.26665E-06 5.20340E-05



 n o d a l   p r i n t   o u t   f o r   t i m e  s t e p    5001                              ( at time 2.4997498E+00 )

 nodal point  x-disp     y-disp      z-disp      x-vel       y-vel       z-vel      x-accl      y-accl      z-accl      x-coor      y-coor      z-coor
    22626 -9.18686E-04 7.60401E-02-1.49106E-01-9.23798E-04 5.34381E-02-1.05952E-01-1.54778E-03 1.40566E-02-2.68592E-02 4.65846E+00-2.81148E+01-4.51308E+01



 n o d a l   p r i n t   o u t   f o r   t i m e  s t e p    5001                              ( at time 2.4997498E+00 )

 nodal point  x-rot      y-rot       z-rot       x-rot vel   y-rot vel   z-rot vel   x-rot acc   y-rot acc   z-rot acc
    22626 -2.61161E-04-2.39034E-06-3.40036E-07-1.54587E-04 1.76584E-06 4.36501E-06 6.96989E-06 1.78411E-05 1.65108E-06



 n o d a l   p r i n t   o u t   f o r   t i m e  s t e p    5201                              ( at time 2.5997398E+00 )

 nodal point  x-disp     y-disp      z-disp      x-vel       y-vel       z-vel      x-accl      y-accl      z-accl      x-coor      y-coor      z-coor
    22626 -1.00938E-03 8.13920E-02-1.59710E-01-9.89252E-04 5.34877E-02-1.06024E-01-6.54607E-04 4.96557E-04-7.21438E-04 4.65837E+00-2.81094E+01-4.51414E+01



 n o d a l   p r i n t   o u t   f o r   t i m e  s t e p    5201                              ( at time 2.5997398E+00 )

 nodal point  x-rot      y-rot       z-rot       x-rot vel   y-rot vel   z-rot vel   x-rot acc   y-rot acc   z-rot acc
    22626 -2.76670E-04-2.06315E-06 5.12789E-08-1.51776E-04 5.11895E-06 5.00062E-06 2.81176E-05 3.35345E-05 6.35681E-06



 n o d a l   p r i n t   o u t   f o r   t i m e  s t e p    5401                              ( at time 2.6997298E+00 )

 nodal point  x-disp     y-disp      z-disp      x-vel       y-vel       z-vel      x-accl      y-accl      z-accl      x-coor      y-coor      z-coor
    22626 -1.10754E-03 8.67281E-02-1.70314E-01-8.17951E-04 5.35656E-02-1.06227E-01 1.71318E-03 7.79408E-04-2.03004E-03 4.65827E+00-2.81041E+01-4.51520E+01



 n o d a l   p r i n t   o u t   f o r   t i m e  s t e p    5401                              ( at time 2.6997298E+00 )

 nodal point  x-rot      y-rot       z-rot       x-rot vel   y-rot vel   z-rot vel   x-rot acc   y-rot acc   z-rot acc
    22626 -2.92383E-04-1.62492E-06 5.75044E-07-1.63050E-04 5.38149E-06 3.51570E-06-1.12749E-04 2.62566E-06-1.48507E-05



 n o d a l   p r i n t   o u t   f o r   t i m e  s t e p    5601                              ( at time 2.7997198E+00 )

 nodal point  x-disp     y-disp      z-disp      x-vel       y-vel       z-vel      x-accl      y-accl      z-accl      x-coor      y-coor      z-coor
    22626 -1.19458E-03 9.21213E-02-1.80982E-01-8.83863E-04 5.42791E-02-1.07481E-01-6.59187E-04 7.13491E-03-1.25360E-02 4.65818E+00-2.80987E+01-4.51627E+01



 n o d a l   p r i n t   o u t   f o r   t i m e  s t e p    5601                              ( at time 2.7997198E+00 )

 nodal point  x-rot      y-rot       z-rot       x-rot vel   y-rot vel   z-rot vel   x-rot acc   y-rot acc   z-rot acc
    22626 -3.07871E-04-1.11206E-06 9.91422E-07-1.44520E-04 3.13966E-06 4.44131E-06 1.85312E-04-2.24206E-05 9.25707E-06



 n o d a l   p r i n t   o u t   f o r   t i m e  s t e p    5801                              ( at time 2.8997098E+00 )

 nodal point  x-disp     y-disp      z-disp      x-vel       y-vel       z-vel      x-accl      y-accl      z-accl      x-coor      y-coor      z-coor
    22626 -1.27578E-03 9.75421E-02-1.91832E-01-7.40225E-04 5.41906E-02-1.09472E-01 1.43653E-03-8.84511E-04-1.99133E-02 4.65810E+00-2.80933E+01-4.51736E+01



 n o d a l   p r i n t   o u t   f o r   t i m e  s t e p    5801                              ( at time 2.8997098E+00 )

 nodal point  x-rot      y-rot       z-rot       x-rot vel   y-rot vel   z-rot vel   x-rot acc   y-rot acc   z-rot acc
    22626 -3.21820E-04-9.17671E-07 1.29046E-06-1.40207E-04 5.60198E-07 3.67885E-06 4.31358E-05-2.57972E-05-7.62539E-06



 n o d a l   p r i n t   o u t   f o r   t i m e  s t e p    6001                              ( at time 2.9996998E+00 )

 nodal point  x-disp     y-disp      z-disp      x-vel       y-vel       z-vel      x-accl      y-accl      z-accl      x-coor      y-coor      z-coor
    22626 -1.35937E-03 1.02933E-01-2.02795E-01-7.27262E-04 5.35774E-02-1.09337E-01 1.29639E-04-6.13240E-03 1.34466E-03 4.65802E+00-2.80879E+01-4.51845E+01



 n o d a l   p r i n t   o u t   f o r   t i m e  s t e p    6001                              ( at time 2.9996998E+00 )

 nodal point  x-rot      y-rot       z-rot       x-rot vel   y-rot vel   z-rot vel   x-rot acc   y-rot acc   z-rot acc
    22626 -3.36596E-04-8.78835E-07 1.47234E-06-1.50161E-04 3.86041E-07 2.43137E-06-9.95510E-05-1.74173E-06-1.24760E-05



 n o d a l   p r i n t   o u t   f o r   t i m e  s t e p    6201                              ( at time 3.0996898E+00 )

 nodal point  x-disp     y-disp      z-disp      x-vel       y-vel       z-vel      x-accl      y-accl      z-accl      x-coor      y-coor      z-coor
    22626 -1.42822E-03 1.08282E-01-2.13683E-01-7.42076E-04 5.36017E-02-1.08916E-01-1.48156E-04 2.42615E-04 4.21485E-03 4.65795E+00-2.80825E+01-4.51954E+01



 n o d a l   p r i n t   o u t   f o r   t i m e  s t e p    6201                              ( at time 3.0996898E+00 )

 nodal point  x-rot      y-rot       z-rot       x-rot vel   y-rot vel   z-rot vel   x-rot acc   y-rot acc   z-rot acc
    22626 -3.51632E-04-8.05142E-07 1.73071E-06-1.49240E-04 6.95636E-08 4.44674E-06 9.21608E-06-3.16510E-06 2.01557E-05



 n o d a l   p r i n t   o u t   f o r   t i m e  s t e p    6401                              ( at time 3.1996798E+00 )

 nodal point  x-disp     y-disp      z-disp      x-vel       y-vel       z-vel      x-accl      y-accl      z-accl      x-coor      y-coor      z-coor
    22626 -1.49400E-03 1.13661E-01-2.24665E-01-6.52151E-04 5.40435E-02-1.10880E-01 8.99338E-04 4.41882E-03-1.96473E-02 4.65788E+00-2.80772E+01-4.52064E+01



 n o d a l   p r i n t   o u t   f o r   t i m e  s t e p    6401                              ( at time 3.1996798E+00 )

 nodal point  x-rot      y-rot       z-rot       x-rot vel   y-rot vel   z-rot vel   x-rot acc   y-rot acc   z-rot acc
    22626 -3.66467E-04-6.79546E-07 1.87782E-06-1.42104E-04 1.40168E-06 1.14619E-06 7.13685E-05 1.33224E-05-3.30087E-05



 n o d a l   p r i n t   o u t   f o r   t i m e  s t e p    6601                              ( at time 3.2996698E+00 )

 nodal point  x-disp     y-disp      z-disp      x-vel       y-vel       z-vel      x-accl      y-accl      z-accl      x-coor      y-coor      z-coor
    22626 -1.57306E-03 1.19095E-01-2.35861E-01-8.23161E-04 5.45490E-02-1.12805E-01-1.71027E-03 5.05487E-03-1.92494E-02 4.65780E+00-2.80717E+01-4.52176E+01



 n o d a l   p r i n t   o u t   f o r   t i m e  s t e p    6601                              ( at time 3.2996698E+00 )

 nodal point  x-rot      y-rot       z-rot       x-rot vel   y-rot vel   z-rot vel   x-rot acc   y-rot acc   z-rot acc
    22626 -3.80645E-04-5.16148E-07 2.12443E-06-1.38997E-04 2.38864E-06 2.97019E-06 3.10673E-05 9.87068E-06 1.82418E-05



 n o d a l   p r i n t   o u t   f o r   t i m e  s t e p    6801                              ( at time 3.3996598E+00 )

 nodal point  x-disp     y-disp      z-disp      x-vel       y-vel       z-vel      x-accl      y-accl      z-accl      x-coor      y-coor      z-coor
    22626 -1.65970E-03 1.24564E-01-2.47165E-01-9.63744E-04 5.46726E-02-1.13172E-01-1.40597E-03 1.23673E-03-3.66702E-03 4.65772E+00-2.80663E+01-4.52289E+01



 n o d a l   p r i n t   o u t   f o r   t i m e  s t e p    6801                              ( at time 3.3996598E+00 )

 nodal point  x-rot      y-rot       z-rot       x-rot vel   y-rot vel   z-rot vel   x-rot acc   y-rot acc   z-rot acc
    22626 -3.94543E-04-3.64387E-07 2.49337E-06-1.39670E-04 3.55274E-06 6.42718E-06-6.72845E-06 1.16421E-05 3.45733E-05



 n o d a l   p r i n t   o u t   f o r   t i m e  s t e p    7001                              ( at time 3.4996498E+00 )

 nodal point  x-disp     y-disp      z-disp      x-vel       y-vel       z-vel      x-accl      y-accl      z-accl      x-coor      y-coor      z-coor
    22626 -1.75101E-03 1.30018E-01-2.58426E-01-9.25472E-04 5.45580E-02-1.12012E-01 3.82755E-04-1.14635E-03 1.15978E-02 4.65762E+00-2.80608E+01-4.52401E+01



 n o d a l   p r i n t   o u t   f o r   t i m e  s t e p    7001                              ( at time 3.4996498E+00 )

 nodal point  x-rot      y-rot       z-rot       x-rot vel   y-rot vel   z-rot vel   x-rot acc   y-rot acc   z-rot acc
    22626 -4.08920E-04-6.96032E-09 2.98546E-06-1.44109E-04 4.60618E-06 4.56807E-06-4.43955E-05 1.05355E-05-1.85930E-05



 n o d a l   p r i n t   o u t   f o r   t i m e  s t e p    7201                              ( at time 3.5996397E+00 )

 nodal point  x-disp     y-disp      z-disp      x-vel       y-vel       z-vel      x-accl      y-accl      z-accl      x-coor      y-coor      z-coor
    22626 -1.84566E-03 1.35486E-01-2.69560E-01-9.21534E-04 5.47597E-02-1.11104E-01 3.93861E-05 2.01756E-03 9.08333E-03 4.65753E+00-2.80553E+01-4.52513E+01



 n o d a l   p r i n t   o u t   f o r   t i m e  s t e p    7201                              ( at time 3.5996397E+00 )

 nodal point  x-rot      y-rot       z-rot       x-rot vel   y-rot vel   z-rot vel   x-rot acc   y-rot acc   z-rot acc
    22626 -4.23362E-04 5.54045E-07 3.38844E-06-1.49981E-04 4.33476E-06-7.78863E-07-5.87290E-05-2.71440E-06-5.34747E-05



 n o d a l   p r i n t   o u t   f o r   t i m e  s t e p    7401                              ( at time 3.6996297E+00 )

 nodal point  x-disp     y-disp      z-disp      x-vel       y-vel       z-vel      x-accl      y-accl      z-accl      x-coor      y-coor      z-coor
    22626 -1.95169E-03 1.40998E-01-2.80681E-01-1.07392E-03 5.56917E-02-1.11428E-01-1.52400E-03 9.32052E-03-3.24423E-03 4.65742E+00-2.80498E+01-4.52624E+01



 n o d a l   p r i n t   o u t   f o r   t i m e  s t e p    7401                              ( at time 3.6996297E+00 )

 nodal point  x-rot      y-rot       z-rot       x-rot vel   y-rot vel   z-rot vel   x-rot acc   y-rot acc   z-rot acc
    22626 -4.38400E-04 7.80947E-07 3.19589E-06-1.53556E-04 3.30132E-07-3.02320E-06-3.57448E-05-4.00503E-05-2.24455E-05



 n o d a l   p r i n t   o u t   f o r   t i m e  s t e p    7601                              ( at time 3.7996197E+00 )

 nodal point  x-disp     y-disp      z-disp      x-vel       y-vel       z-vel      x-accl      y-accl      z-accl      x-coor      y-coor      z-coor
    22626 -2.05371E-03 1.46632E-01-2.91810E-01-9.37721E-04 5.69865E-02-1.11052E-01 1.36212E-03 1.29495E-02 3.76337E-03 4.65732E+00-2.80442E+01-4.52735E+01



 n o d a l   p r i n t   o u t   f o r   t i m e  s t e p    7601                              ( at time 3.7996197E+00 )

 nodal point  x-rot      y-rot       z-rot       x-rot vel   y-rot vel   z-rot vel   x-rot acc   y-rot acc   z-rot acc
    22626 -4.53978E-04 6.49867E-07 2.84138E-06-1.65687E-04-2.41106E-06-4.06810E-06-1.21324E-04-2.74147E-05-1.04501E-05



 n o d a l   p r i n t   o u t   f o r   t i m e  s t e p    7801                              ( at time 3.8996097E+00 )

 nodal point  x-disp     y-disp      z-disp      x-vel       y-vel       z-vel      x-accl      y-accl      z-accl      x-coor      y-coor      z-coor
    22626 -2.12771E-03 1.52405E-01-3.02838E-01-6.50692E-04 5.85153E-02-1.09415E-01 2.87057E-03 1.52889E-02 1.63712E-02 4.65725E+00-2.80384E+01-4.52846E+01



 n o d a l   p r i n t   o u t   f o r   t i m e  s t e p    7801                              ( at time 3.8996097E+00 )

 nodal point  x-rot      y-rot       z-rot       x-rot vel   y-rot vel   z-rot vel   x-rot acc   y-rot acc   z-rot acc
    22626 -4.71467E-04 4.92704E-07 2.52659E-06-1.90387E-04-1.41013E-07-3.30390E-06-2.47023E-04 2.27027E-05 7.64275E-06



 n o d a l   p r i n t   o u t   f o r   t i m e  s t e p    8001                              ( at time 3.9995997E+00 )

 nodal point  x-disp     y-disp      z-disp      x-vel       y-vel       z-vel      x-accl      y-accl      z-accl      x-coor      y-coor      z-coor
    22626 -2.19043E-03 1.58348E-01-3.13660E-01-6.46553E-04 6.08762E-02-1.07001E-01 4.13997E-05 2.36119E-02 2.41438E-02 4.65718E+00-2.80325E+01-4.52954E+01



 n o d a l   p r i n t   o u t   f o r   t i m e  s t e p    8001                              ( at time 3.9995997E+00 )

 nodal point  x-rot      y-rot       z-rot       x-rot vel   y-rot vel   z-rot vel   x-rot acc   y-rot acc   z-rot acc
    22626 -4.91638E-04 2.42767E-07 1.90616E-06-2.13700E-04-2.94219E-06-6.41262E-06-2.33162E-04-2.80146E-05-3.10904E-05



 n o d a l   p r i n t   o u t   f o r   t i m e  s t e p    8201                              ( at time 4.0995897E+00 )

 nodal point  x-disp     y-disp      z-disp      x-vel       y-vel       z-vel      x-accl      y-accl      z-accl      x-coor      y-coor      z-coor
    22626 -2.25197E-03 1.64602E-01-3.24327E-01-5.18240E-04 6.43151E-02-1.06422E-01 1.28325E-03 3.43926E-02 5.79355E-03 4.65712E+00-2.80262E+01-4.53060E+01



 n o d a l   p r i n t   o u t   f o r   t i m e  s t e p    8201                              ( at time 4.0995897E+00 )

 nodal point  x-rot      y-rot       z-rot       x-rot vel   y-rot vel   z-rot vel   x-rot acc   y-rot acc   z-rot acc
    22626 -5.13880E-04 2.67729E-08 1.35855E-06-2.36825E-04-1.28800E-06-3.58852E-06-2.31264E-04 1.65435E-05 2.82437E-05



 n o d a l   p r i n t   o u t   f o r   t i m e  s t e p    8401                              ( at time 4.1995797E+00 )

 nodal point  x-disp     y-disp      z-disp      x-vel       y-vel       z-vel      x-accl      y-accl      z-accl      x-coor      y-coor      z-coor
    22626 -2.29992E-03 1.71264E-01-3.34936E-01-4.59428E-04 6.89207E-02-1.05566E-01 5.88182E-04 4.60600E-02 8.55860E-03 4.65707E+00-2.80196E+01-4.53167E+01



 n o d a l   p r i n t   o u t   f o r   t i m e  s t e p    8401                              ( at time 4.1995797E+00 )

 nodal point  x-rot      y-rot       z-rot       x-rot vel   y-rot vel   z-rot vel   x-rot acc   y-rot acc   z-rot acc
    22626 -5.39459E-04-1.49889E-09 9.62629E-07-2.72159E-04 4.74087E-07-2.27664E-06-3.53382E-04 1.76227E-05 1.31202E-05



 n o d a l   p r i n t   o u t   f o r   t i m e  s t e p    8601                              ( at time 4.2995697E+00 )

 nodal point  x-disp     y-disp      z-disp      x-vel       y-vel       z-vel      x-accl      y-accl      z-accl      x-coor      y-coor      z-coor
    22626 -2.36182E-03 1.78431E-01-3.45418E-01-7.93550E-04 7.43067E-02-1.03729E-01-3.34156E-03 5.38654E-02 1.83746E-02 4.65701E+00-2.80124E+01-4.53271E+01



 n o d a l   p r i n t   o u t   f o r   t i m e  s t e p    8601                              ( at time 4.2995697E+00 )

 nodal point  x-rot      y-rot       z-rot       x-rot vel   y-rot vel   z-rot vel   x-rot acc   y-rot acc   z-rot acc
    22626 -5.69024E-04-1.23757E-07 5.84754E-07-3.15499E-04-2.53686E-06-6.11814E-06-4.33440E-04-3.01126E-05-3.84189E-05



 n o d a l   p r i n t   o u t   f o r   t i m e  s t e p    8801                              ( at time 4.3995597E+00 )

 nodal point  x-disp     y-disp      z-disp      x-vel       y-vel       z-vel      x-accl      y-accl      z-accl      x-coor      y-coor      z-coor
    22626 -2.45553E-03 1.86130E-01-3.55652E-01-9.32969E-04 8.01001E-02-1.00888E-01-1.39433E-03 5.79402E-02 2.84090E-02 4.65692E+00-2.80047E+01-4.53374E+01



 n o d a l   p r i n t   o u t   f o r   t i m e  s t e p    8801                              ( at time 4.3995597E+00 )

 nodal point  x-rot      y-rot       z-rot       x-rot vel   y-rot vel   z-rot vel   x-rot acc   y-rot acc   z-rot acc
    22626 -6.03580E-04-3.21340E-07-4.09755E-07-3.75956E-04-2.53342E-06-1.19263E-05-6.04630E-04 3.44597E-08-5.80878E-05



 n o d a l   p r i n t   o u t   f o r   t i m e  s t e p    9001                              ( at time 4.4995497E+00 )

 nodal point  x-disp     y-disp      z-disp      x-vel       y-vel       z-vel      x-accl      y-accl      z-accl      x-coor      y-coor      z-coor
    22626 -2.56824E-03 1.94510E-01-3.65670E-01-1.27990E-03 8.78471E-02-9.99906E-02-3.46960E-03 7.74779E-02 8.97494E-03 4.65681E+00-2.79963E+01-4.53474E+01



 n o d a l   p r i n t   o u t   f o r   t i m e  s t e p    9001                              ( at time 4.4995497E+00 )

 nodal point  x-rot      y-rot       z-rot       x-rot vel   y-rot vel   z-rot vel   x-rot acc   y-rot acc   z-rot acc
    22626 -6.44423E-04-6.33918E-07-1.86977E-06-4.38706E-04-6.61977E-06-1.99648E-05-6.27566E-04-4.08675E-05-8.03923E-05



 n o d a l   p r i n t   o u t   f o r   t i m e  s t e p    9201                              ( at time 4.5995397E+00 )

 nodal point  x-disp     y-disp      z-disp      x-vel       y-vel       z-vel      x-accl      y-accl      z-accl      x-coor      y-coor      z-coor
    22626 -2.69104E-03 2.03755E-01-3.75650E-01-1.05925E-03 9.68990E-02-9.95656E-02 2.20663E-03 9.05283E-02 4.25069E-03 4.65668E+00-2.79871E+01-4.53574E+01



 n o d a l   p r i n t   o u t   f o r   t i m e  s t e p    9201                              ( at time 4.5995397E+00 )

 nodal point  x-rot      y-rot       z-rot       x-rot vel   y-rot vel   z-rot vel   x-rot acc   y-rot acc   z-rot acc
    22626 -6.91239E-04-1.43307E-06-3.74084E-06-4.99158E-04-8.45429E-06-1.63337E-05-6.04575E-04-1.83470E-05 3.63150E-05



 n o d a l   p r i n t   o u t   f o r   t i m e  s t e p    9401                              ( at time 4.6995297E+00 )

 nodal point  x-disp     y-disp      z-disp      x-vel       y-vel       z-vel      x-accl      y-accl      z-accl      x-coor      y-coor      z-coor
    22626 -2.78885E-03 2.13899E-01-3.85517E-01-1.08496E-03 1.06438E-01-9.80014E-02-2.57057E-04 9.53955E-02 1.56436E-02 4.65659E+00-2.79769E+01-4.53672E+01



 n o d a l   p r i n t   o u t   f o r   t i m e  s t e p    9401                              ( at time 4.6995297E+00 )

 nodal point  x-rot      y-rot       z-rot       x-rot vel   y-rot vel   z-rot vel   x-rot acc   y-rot acc   z-rot acc
    22626 -7.45164E-04-2.29281E-06-5.37323E-06-5.84207E-04-8.42290E-06-1.60719E-05-8.50580E-04 3.13871E-07 2.61743E-06



 n o d a l   p r i n t   o u t   f o r   t i m e  s t e p    9601                              ( at time 4.7995197E+00 )

 nodal point  x-disp     y-disp      z-disp      x-vel       y-vel       z-vel      x-accl      y-accl      z-accl      x-coor      y-coor      z-coor
    22626 -2.89624E-03 2.25085E-01-3.95239E-01-1.02448E-03 1.17388E-01-9.59569E-02 6.04874E-04 1.09512E-01 2.04470E-02 4.65648E+00-2.79657E+01-4.53770E+01



 n o d a l   p r i n t   o u t   f o r   t i m e  s t e p    9601                              ( at time 4.7995197E+00 )

 nodal point  x-rot      y-rot       z-rot       x-rot vel   y-rot vel   z-rot vel   x-rot acc   y-rot acc   z-rot acc
    22626 -8.08188E-04-3.44920E-06-7.44886E-06-6.77471E-04-9.19369E-06-1.78320E-05-9.32736E-04-7.70868E-06-1.76022E-05



 n o d a l   p r i n t   o u t   f o r   t i m e  s t e p    9801                              ( at time 4.8995097E+00 )

 nodal point  x-disp     y-disp      z-disp      x-vel       y-vel       z-vel      x-accl      y-accl      z-accl      x-coor      y-coor      z-coor
    22626 -2.97698E-03 2.37404E-01-4.04725E-01-7.24955E-04 1.29478E-01-9.40217E-02 2.99552E-03 1.20916E-01 1.93533E-02 4.65640E+00-2.79534E+01-4.53864E+01



 n o d a l   p r i n t   o u t   f o r   t i m e  s t e p    9801                              ( at time 4.8995097E+00 )

 nodal point  x-rot      y-rot       z-rot       x-rot vel   y-rot vel   z-rot vel   x-rot acc   y-rot acc   z-rot acc
    22626 -8.80185E-04-4.37665E-06-9.08059E-06-7.62276E-04-9.38253E-06-1.81563E-05-8.48136E-04-1.88860E-06-3.24377E-06



 n o d a l   p r i n t   o u t   f o r   t i m e  s t e p   10001                              ( at time 4.9994997E+00 )

 nodal point  x-disp     y-disp      z-disp      x-vel       y-vel       z-vel      x-accl      y-accl      z-accl      x-coor      y-coor      z-coor
    22626 -3.06329E-03 2.51004E-01-4.14125E-01-1.20665E-03 1.42613E-01-9.39395E-02-4.81741E-03 1.31360E-01 8.22623E-04 4.65631E+00-2.79398E+01-4.53958E+01



 n o d a l   p r i n t   o u t   f o r   t i m e  s t e p   10001                              ( at time 4.9994997E+00 )

 nodal point  x-rot      y-rot       z-rot       x-rot vel   y-rot vel   z-rot vel   x-rot acc   y-rot acc   z-rot acc
    22626 -9.60948E-04-5.66144E-06-1.16117E-05-8.55008E-04-1.62644E-05-2.84196E-05-9.27411E-04-6.88257E-05-1.02642E-04



 n o d a l   p r i n t   o u t   f o r   t i m e  s t e p   10202                              ( at time 5.0999896E+00 )

 nodal point  x-disp     y-disp      z-disp      x-vel       y-vel       z-vel      x-accl      y-accl      z-accl      x-coor      y-coor      z-coor
    22626 -3.18415E-03 2.66042E-01-4.23527E-01-8.51668E-04 1.56726E-01-9.29672E-02 3.53252E-03 1.40444E-01 9.67519E-03 4.65619E+00-2.79248E+01-4.54052E+01



 n o d a l   p r i n t   o u t   f o r   t i m e  s t e p   10202                              ( at time 5.0999896E+00 )

 nodal point  x-rot      y-rot       z-rot       x-rot vel   y-rot vel   z-rot vel   x-rot acc   y-rot acc   z-rot acc
    22626 -1.05255E-03-6.93349E-06-1.37150E-05-9.69137E-04-5.23313E-06-1.21082E-05-1.13572E-03 1.09776E-04 1.62319E-04



 n o d a l   p r i n t   o u t   f o r   t i m e  s t e p   10402                              ( at time 5.1999796E+00 )

 nodal point  x-disp     y-disp      z-disp      x-vel       y-vel       z-vel      x-accl      y-accl      z-accl      x-coor      y-coor      z-coor
    22626 -3.24701E-03 2.82441E-01-4.32745E-01-6.64570E-04 1.71347E-01-9.11553E-02 1.87116E-03 1.46226E-01 1.81213E-02 4.65613E+00-2.79084E+01-4.54145E+01



 n o d a l   p r i n t   o u t   f o r   t i m e  s t e p   10402                              ( at time 5.1999796E+00 )

 nodal point  x-rot      y-rot       z-rot       x-rot vel   y-rot vel   z-rot vel   x-rot acc   y-rot acc   z-rot acc
    22626 -1.15542E-03-7.44778E-06-1.48871E-05-1.08638E-03-4.42313E-06-1.56050E-05-1.17256E-03 8.10080E-06-3.49711E-05



 n o d a l   p r i n t   o u t   f o r   t i m e  s t e p   10602                              ( at time 5.2999696E+00 )

 nodal point  x-disp     y-disp      z-disp      x-vel       y-vel       z-vel      x-accl      y-accl      z-accl      x-coor      y-coor      z-coor
    22626 -3.35633E-03 3.00337E-01-4.41779E-01-1.37275E-03 1.86376E-01-8.96928E-02-7.08248E-03 1.50301E-01 1.46264E-02 4.65602E+00-2.78905E+01-4.54235E+01



 n o d a l   p r i n t   o u t   f o r   t i m e  s t e p   10602                              ( at time 5.2999696E+00 )

 nodal point  x-rot      y-rot       z-rot       x-rot vel   y-rot vel   z-rot vel   x-rot acc   y-rot acc   z-rot acc
    22626 -1.26985E-03-8.12332E-06-1.67117E-05-1.19997E-03-1.25345E-05-1.97112E-05-1.13604E-03-8.11219E-05-4.10663E-05



 n o d a l   p r i n t   o u t   f o r   t i m e  s t e p   10802                              ( at time 5.3999596E+00 )

 nodal point  x-disp     y-disp      z-disp      x-vel       y-vel       z-vel      x-accl      y-accl      z-accl      x-coor      y-coor      z-coor
    22626 -3.48329E-03 3.19780E-01-4.50710E-01-1.15525E-03 2.02569E-01-8.94115E-02 2.17518E-03 1.61951E-01 2.81288E-03 4.65589E+00-2.78710E+01-4.54324E+01



 n o d a l   p r i n t   o u t   f o r   t i m e  s t e p   10802                              ( at time 5.3999596E+00 )

 nodal point  x-rot      y-rot       z-rot       x-rot vel   y-rot vel   z-rot vel   x-rot acc   y-rot acc   z-rot acc
    22626 -1.39514E-03-9.18377E-06-1.84715E-05-1.31687E-03-8.81839E-06-1.51355E-05-1.16904E-03 3.71648E-05 4.57613E-05



 n o d a l   p r i n t   o u t   f o r   t i m e  s t e p   11002                              ( at time 5.4999496E+00 )

 nodal point  x-disp     y-disp      z-disp      x-vel       y-vel       z-vel      x-accl      y-accl      z-accl      x-coor      y-coor      z-coor
    22626 -3.58018E-03 3.40899E-01-4.59561E-01-7.02315E-04 2.19399E-01-8.79082E-02 4.52981E-03 1.68312E-01 1.50342E-02 4.65579E+00-2.78499E+01-4.54413E+01



 n o d a l   p r i n t   o u t   f o r   t i m e  s t e p   11002                              ( at time 5.4999496E+00 )

 nodal point  x-rot      y-rot       z-rot       x-rot vel   y-rot vel   z-rot vel   x-rot acc   y-rot acc   z-rot acc
    22626 -1.53299E-03-9.46402E-06-1.99649E-05-1.44891E-03-2.94173E-06-1.54364E-05-1.32062E-03 5.87726E-05-3.00941E-06



 n o d a l   p r i n t   o u t   f o r   t i m e  s t e p   11202                              ( at time 5.5999396E+00 )

 nodal point  x-disp     y-disp      z-disp      x-vel       y-vel       z-vel      x-accl      y-accl      z-accl      x-coor      y-coor      z-coor
    22626 -3.67495E-03 3.63687E-01-4.68215E-01-1.19352E-03 2.36416E-01-8.51749E-02-4.91252E-03 1.70187E-01 2.73367E-02 4.65570E+00-2.78271E+01-4.54499E+01



 n o d a l   p r i n t   o u t   f o r   t i m e  s t e p   11202                              ( at time 5.5999396E+00 )

 nodal point  x-rot      y-rot       z-rot       x-rot vel   y-rot vel   z-rot vel   x-rot acc   y-rot acc   z-rot acc
    22626 -1.68398E-03-1.03733E-05-2.14175E-05-1.57448E-03-1.40907E-05-1.57439E-05-1.25575E-03-1.11501E-04-3.07529E-06



 n o d a l   p r i n t   o u t   f o r   t i m e  s t e p   11402                              ( at time 5.6999296E+00 )

 nodal point  x-disp     y-disp      z-disp      x-vel       y-vel       z-vel      x-accl      y-accl      z-accl      x-coor      y-coor      z-coor
    22626 -3.79727E-03 3.88168E-01-4.76582E-01-1.02543E-03 2.53627E-01-8.21187E-02 1.68105E-03 1.72129E-01 3.05641E-02 4.65558E+00-2.78027E+01-4.54583E+01



 n o d a l   p r i n t   o u t   f o r   t i m e  s t e p   11402                              ( at time 5.6999296E+00 )

 nodal point  x-rot      y-rot       z-rot       x-rot vel   y-rot vel   z-rot vel   x-rot acc   y-rot acc   z-rot acc
    22626 -1.84785E-03-1.19674E-05-2.33188E-05-1.70510E-03-1.07493E-05-2.06437E-05-1.30640E-03 3.34175E-05-4.90021E-05



 n o d a l   p r i n t   o u t   f o r   t i m e  s t e p   11602                              ( at time 5.7999195E+00 )

 nodal point  x-disp     y-disp      z-disp      x-vel       y-vel       z-vel      x-accl      y-accl      z-accl      x-coor      y-coor      z-coor
    22626 -3.87633E-03 4.14446E-01-4.84661E-01-4.82677E-04 2.71768E-01-7.95561E-02 5.42806E-03 1.81432E-01 2.56290E-02 4.65550E+00-2.77764E+01-4.54664E+01



 n o d a l   p r i n t   o u t   f o r   t i m e  s t e p   11602                              ( at time 5.7999195E+00 )

 nodal point  x-rot      y-rot       z-rot       x-rot vel   y-rot vel   z-rot vel   x-rot acc   y-rot acc   z-rot acc
    22626 -2.02461E-03-1.21291E-05-2.48791E-05-1.83108E-03 2.77826E-06-7.29956E-06-1.25989E-03 1.35289E-04 1.33455E-04



 n o d a l   p r i n t   o u t   f o r   t i m e  s t e p   11802                              ( at time 5.8999095E+00 )

 nodal point  x-disp     y-disp      z-disp      x-vel       y-vel       z-vel      x-accl      y-accl      z-accl      x-coor      y-coor      z-coor
    22626 -3.91012E-03 4.42560E-01-4.92510E-01-5.91746E-04 2.90533E-01-7.74792E-02-1.09079E-03 1.87671E-01 2.07707E-02 4.65546E+00-2.77483E+01-4.54742E+01



 n o d a l   p r i n t   o u t   f o r   t i m e  s t e p   11802                              ( at time 5.8999095E+00 )

 nodal point  x-rot      y-rot       z-rot       x-rot vel   y-rot vel   z-rot vel   x-rot acc   y-rot acc   z-rot acc
    22626 -2.21468E-03-1.25009E-05-2.54049E-05-1.98117E-03-1.21203E-05-1.11114E-05-1.50106E-03-1.49001E-04-3.81221E-05



 n o d a l   p r i n t   o u t   f o r   t i m e  s t e p   12002                              ( at time 5.9998995E+00 )

 nodal point  x-disp     y-disp      z-disp      x-vel       y-vel       z-vel      x-accl      y-accl      z-accl      x-coor      y-coor      z-coor
    22626 -4.01517E-03 4.72581E-01-5.00126E-01-1.24932E-03 3.09496E-01-7.48423E-02-6.57641E-03 1.89649E-01 2.63715E-02 4.65536E+00-2.77182E+01-4.54818E+01



 n o d a l   p r i n t   o u t   f o r   t i m e  s t e p   12002                              ( at time 5.9998995E+00 )

 nodal point  x-rot      y-rot       z-rot       x-rot vel   y-rot vel   z-rot vel   x-rot acc   y-rot acc   z-rot acc
    22626 -2.42031E-03-1.37549E-05-2.72214E-05-2.12768E-03-9.00510E-06-2.33322E-05-1.46526E-03 3.11553E-05-1.22220E-04



 n o d a l   p r i n t   o u t   f o r   t i m e  s t e p   12202                              ( at time 6.0998895E+00 )

 nodal point  x-disp     y-disp      z-disp      x-vel       y-vel       z-vel      x-accl      y-accl      z-accl      x-coor      y-coor      z-coor
    22626 -4.13049E-03 5.04515E-01-5.07474E-01-9.90123E-04 3.29563E-01-7.19577E-02 2.59222E-03 2.00683E-01 2.88496E-02 4.65524E+00-2.76863E+01-4.54892E+01



 n o d a l   p r i n t   o u t   f o r   t i m e  s t e p   12202                              ( at time 6.0998895E+00 )

 nodal point  x-rot      y-rot       z-rot       x-rot vel   y-rot vel   z-rot vel   x-rot acc   y-rot acc   z-rot acc
    22626 -2.63966E-03-1.44449E-05-2.88288E-05-2.26305E-03-1.92201E-06-5.97996E-06-1.35382E-03 7.08376E-05 1.73539E-04



 n o d a l   p r i n t   o u t   f o r   t i m e  s t e p   12402                              ( at time 6.1998795E+00 )

 nodal point  x-disp     y-disp      z-disp      x-vel       y-vel       z-vel      x-accl      y-accl      z-accl      x-coor      y-coor      z-coor
    22626 -4.17719E-03 5.38472E-01-5.14490E-01-1.16038E-04 3.49408E-01-6.85035E-02 8.74173E-03 1.98473E-01 3.45449E-02 4.65520E+00-2.76524E+01-4.54962E+01



 n o d a l   p r i n t   o u t   f o r   t i m e  s t e p   12402                              ( at time 6.1998795E+00 )

 nodal point  x-rot      y-rot       z-rot       x-rot vel   y-rot vel   z-rot vel   x-rot acc   y-rot acc   z-rot acc
    22626 -2.87386E-03-1.40941E-05-2.91529E-05-2.42314E-03 4.10190E-06 2.16332E-07-1.60101E-03 6.02452E-05 6.19692E-05



 n o d a l   p r i n t   o u t   f o r   t i m e  s t e p   12602                              ( at time 6.2998695E+00 )

 nodal point  x-disp     y-disp      z-disp      x-vel       y-vel       z-vel      x-accl      y-accl      z-accl      x-coor      y-coor      z-coor
    22626 -4.19968E-03 5.74444E-01-5.21235E-01-5.61865E-04 3.70044E-01-6.68152E-02-4.45871E-03 2.06384E-01 1.68852E-02 4.65518E+00-2.76164E+01-4.55030E+01



 n o d a l   p r i n t   o u t   f o r   t i m e  s t e p   12602                              ( at time 6.2998695E+00 )

 nodal point  x-rot      y-rot       z-rot       x-rot vel   y-rot vel   z-rot vel   x-rot acc   y-rot acc   z-rot acc
    22626 -3.12334E-03-1.39952E-05-2.92285E-05-2.57023E-03-6.95036E-06-5.49352E-06-1.47109E-03-1.10534E-04-5.71043E-05



 n o d a l   p r i n t   o u t   f o r   t i m e  s t e p   12802                              ( at time 6.3998595E+00 )

 nodal point  x-disp     y-disp      z-disp      x-vel       y-vel       z-vel      x-accl      y-accl      z-accl      x-coor      y-coor      z-coor
    22626 -4.30235E-03 6.12517E-01-5.27733E-01-1.08762E-03 3.91023E-01-6.27762E-02-5.25805E-03 2.09810E-01 4.03941E-02 4.65507E+00-2.75783E+01-4.55095E+01



 n o d a l   p r i n t   o u t   f o r   t i m e  s t e p   12802                              ( at time 6.3998595E+00 )

 nodal point  x-rot      y-rot       z-rot       x-rot vel   y-rot vel   z-rot vel   x-rot acc   y-rot acc   z-rot acc
    22626 -3.38766E-03-1.46005E-05-3.02270E-05-2.72092E-03-1.87906E-06-1.01581E-05-1.50703E-03 5.07181E-05-4.66502E-05



 n o d a l   p r i n t   o u t   f o r   t i m e  s t e p   13002                              ( at time 6.4998495E+00 )

 nodal point  x-disp     y-disp      z-disp      x-vel       y-vel       z-vel      x-accl      y-accl      z-accl      x-coor      y-coor      z-coor
    22626 -4.34035E-03 6.52608E-01-5.33753E-01 3.29305E-04 4.11069E-01-5.79435E-02 1.41706E-02 2.00473E-01 4.83311E-02 4.65503E+00-2.75382E+01-4.55155E+01



 n o d a l   p r i n t   o u t   f o r   t i m e  s t e p   13002                              ( at time 6.4998495E+00 )

 nodal point  x-rot      y-rot       z-rot       x-rot vel   y-rot vel   z-rot vel   x-rot acc   y-rot acc   z-rot acc
    22626 -3.66753E-03-1.38939E-05-3.04208E-05-2.87540E-03 1.61747E-05 9.24426E-06-1.54499E-03 1.80556E-04 1.94043E-04



 n o d a l   p r i n t   o u t   f o r   t i m e  s t e p   13202                              ( at time 6.5998395E+00 )

 nodal point  x-disp     y-disp      z-disp      x-vel       y-vel       z-vel      x-accl      y-accl      z-accl      x-coor      y-coor      z-coor
    22626 -4.28830E-03 6.94757E-01-5.39329E-01 2.53558E-04 4.31982E-01-5.31772E-02-7.57547E-04 2.09151E-01 4.76684E-02 4.65509E+00-2.74961E+01-4.55210E+01



 n o d a l   p r i n t   o u t   f o r   t i m e  s t e p   13202                              ( at time 6.5998395E+00 )

 nodal point  x-rot      y-rot       z-rot       x-rot vel   y-rot vel   z-rot vel   x-rot acc   y-rot acc   z-rot acc
    22626 -3.96325E-03-1.30682E-05-2.94746E-05-3.03493E-03-3.77269E-07 2.62438E-06-1.59547E-03-1.65535E-04-6.62051E-05



 n o d a l   p r i n t   o u t   f o r   t i m e  s t e p   13402                              ( at time 6.6998295E+00 )

 nodal point  x-disp     y-disp      z-disp      x-vel       y-vel       z-vel      x-accl      y-accl      z-accl      x-coor      y-coor      z-coor
    22626 -4.30623E-03 7.39015E-01-5.44371E-01-3.84215E-04 4.53109E-01-4.83089E-02-6.37837E-03 2.11300E-01 4.86879E-02 4.65507E+00-2.74518E+01-4.55261E+01



 n o d a l   p r i n t   o u t   f o r   t i m e  s t e p   13402                              ( at time 6.6998295E+00 )

 nodal point  x-rot      y-rot       z-rot       x-rot vel   y-rot vel   z-rot vel   x-rot acc   y-rot acc   z-rot acc
    22626 -4.27410E-03-1.33090E-05-2.97542E-05-3.18633E-03 3.90427E-06-1.89826E-06-1.51408E-03 4.28197E-05-4.52310E-05



 n o d a l   p r i n t   o u t   f o r   t i m e  s t e p   13602                              ( at time 6.7998195E+00 )

 nodal point  x-disp     y-disp      z-disp      x-vel       y-vel       z-vel      x-accl      y-accl      z-accl      x-coor      y-coor      z-coor
    22626 -4.27923E-03 7.85389E-01-5.48985E-01 9.65634E-04 4.74276E-01-4.35484E-02 1.34999E-02 2.11689E-01 4.76097E-02 4.65510E+00-2.74054E+01-4.55307E+01



 n o d a l   p r i n t   o u t   f o r   t i m e  s t e p   13602                              ( at time 6.7998195E+00 )

 nodal point  x-rot      y-rot       z-rot       x-rot vel   y-rot vel   z-rot vel   x-rot acc   y-rot acc   z-rot acc
    22626 -4.60113E-03-1.18350E-05-2.93297E-05-3.35483E-03 1.97339E-05 1.49500E-05-1.68523E-03 1.58313E-04 1.68500E-04



 n o d a l   p r i n t   o u t   f o r   t i m e  s t e p   13802                              ( at time 6.8998095E+00 )

 nodal point  x-disp     y-disp      z-disp      x-vel       y-vel       z-vel      x-accl      y-accl      z-accl      x-coor      y-coor      z-coor
    22626 -4.16883E-03 8.33849E-01-5.53025E-01 1.02892E-03 4.95268E-01-3.70889E-02 6.32937E-04 2.09938E-01 6.46010E-02 4.65521E+00-2.73570E+01-4.55347E+01



 n o d a l   p r i n t   o u t   f o r   t i m e  s t e p   13802                              ( at time 6.8998095E+00 )

 nodal point  x-rot      y-rot       z-rot       x-rot vel   y-rot vel   z-rot vel   x-rot acc   y-rot acc   z-rot acc
    22626 -4.94505E-03-1.04084E-05-2.77726E-05-3.51753E-03 7.52391E-06 1.34120E-05-1.62718E-03-1.22112E-04-1.53816E-05



 n o d a l   p r i n t   o u t   f o r   t i m e  s t e p   14002                              ( at time 6.9997995E+00 )

 nodal point  x-disp     y-disp      z-disp      x-vel       y-vel       z-vel      x-accl      y-accl      z-accl      x-coor      y-coor      z-coor
    22626 -4.10602E-03 8.84440E-01-5.56440E-01 4.62088E-04 5.16482E-01-3.08723E-02-5.66890E-03 2.12167E-01 6.21727E-02 4.65527E+00-2.73064E+01-4.55382E+01



 n o d a l   p r i n t   o u t   f o r   t i m e  s t e p   14002                              ( at time 6.9997995E+00 )

 nodal point  x-rot      y-rot       z-rot       x-rot vel   y-rot vel   z-rot vel   x-rot acc   y-rot acc   z-rot acc
    22626 -5.30531E-03-9.75675E-06-2.67824E-05-3.68233E-03 1.07805E-05 7.10551E-06-1.64808E-03 3.25693E-05-6.30712E-05



 n o d a l   p r i n t   o u t   f o r   t i m e  s t e p   14202                              ( at time 7.0997895E+00 )

 nodal point  x-disp     y-disp      z-disp      x-vel       y-vel       z-vel      x-accl      y-accl      z-accl      x-coor      y-coor      z-coor
    22626 -4.03663E-03 9.37180E-01-5.59197E-01 8.21901E-04 5.38340E-01-2.44256E-02 3.59848E-03 2.18595E-01 6.44727E-02 4.65534E+00-2.72536E+01-4.55409E+01



 n o d a l   p r i n t   o u t   f o r   t i m e  s t e p   14202                              ( at time 7.0997895E+00 )

 nodal point  x-rot      y-rot       z-rot       x-rot vel   y-rot vel   z-rot vel   x-rot acc   y-rot acc   z-rot acc
    22626 -5.68149E-03-8.07445E-06-2.60690E-05-3.84596E-03 1.88708E-05 7.42812E-06-1.63651E-03 8.09109E-05 3.22642E-06



 n o d a l   p r i n t   o u t   f o r   t i m e  s t e p   14402                              ( at time 7.1997794E+00 )

 nodal point  x-disp     y-disp      z-disp      x-vel       y-vel       z-vel      x-accl      y-accl      z-accl      x-coor      y-coor      z-coor
    22626 -3.95128E-03 9.92076E-01-5.61289E-01 8.17352E-04 5.59415E-01-1.72795E-02-4.55015E-05 2.10772E-01 7.14689E-02 4.65542E+00-2.71988E+01-4.55430E+01



 n o d a l   p r i n t   o u t   f o r   t i m e  s t e p   14402                              ( at time 7.1997794E+00 )

 nodal point  x-rot      y-rot       z-rot       x-rot vel   y-rot vel   z-rot vel   x-rot acc   y-rot acc   z-rot acc
    22626 -6.07429E-03-6.29070E-06-2.49255E-05-4.02118E-03 1.44349E-05 1.05475E-05-1.75239E-03-4.43636E-05 3.11968E-05



 n o d a l   p r i n t   o u t   f o r   t i m e  s t e p   14602                              ( at time 7.2997694E+00 )

 nodal point  x-disp     y-disp      z-disp      x-vel       y-vel       z-vel      x-accl      y-accl      z-accl      x-coor      y-coor      z-coor
    22626 -3.85336E-03 1.04906E+00-5.62567E-01 1.18530E-03 5.80669E-01-7.92480E-03 3.67984E-03 2.12562E-01 9.35562E-02 4.65552E+00-2.71418E+01-4.55443E+01



 n o d a l   p r i n t   o u t   f o r   t i m e  s t e p   14602                              ( at time 7.2997694E+00 )

 nodal point  x-rot      y-rot       z-rot       x-rot vel   y-rot vel   z-rot vel   x-rot acc   y-rot acc   z-rot acc
    22626 -6.48502E-03-5.21791E-06-2.40932E-05-4.18693E-03 7.73477E-06 2.65513E-06-1.65768E-03-6.70082E-05-7.89315E-05



 n o d a l   p r i n t   o u t   f o r   t i m e  s t e p   14802                              ( at time 7.3997594E+00 )

 nodal point  x-disp     y-disp      z-disp      x-vel       y-vel       z-vel      x-accl      y-accl      z-accl      x-coor      y-coor      z-coor
    22626 -3.73815E-03 1.10817E+00-5.62902E-01 9.66103E-04 6.01557E-01 1.42280E-03-2.19217E-03 2.08906E-01 9.34854E-02 4.65564E+00-2.70827E+01-4.55446E+01



 n o d a l   p r i n t   o u t   f o r   t i m e  s t e p   14802                              ( at time 7.3997594E+00 )

 nodal point  x-rot      y-rot       z-rot       x-rot vel   y-rot vel   z-rot vel   x-rot acc   y-rot acc   z-rot acc
    22626 -6.91176E-03-3.68586E-06-2.34507E-05-4.35089E-03 2.39360E-05 9.67563E-06-1.63974E-03 1.62028E-04 7.02121E-05



 n o d a l   p r i n t   o u t   f o r   t i m e  s t e p   15002                              ( at time 7.4997494E+00 )

 nodal point  x-disp     y-disp      z-disp      x-vel       y-vel       z-vel      x-accl      y-accl      z-accl      x-coor      y-coor      z-coor
    22626 -3.62786E-03 1.16931E+00-5.62269E-01 1.31409E-03 6.21604E-01 1.14655E-02 3.48017E-03 2.00481E-01 1.00436E-01 4.65575E+00-2.70215E+01-4.55440E+01



 n o d a l   p r i n t   o u t   f o r   t i m e  s t e p   15002                              ( at time 7.4997494E+00 )

 nodal point  x-rot      y-rot       z-rot       x-rot vel   y-rot vel   z-rot vel   x-rot acc   y-rot acc   z-rot acc
    22626 -7.35587E-03-1.73062E-06-2.30050E-05-4.52902E-03 9.22773E-06-6.36582E-06-1.78143E-03-1.47097E-04-1.60430E-04



 n o d a l   p r i n t   o u t   f o r   t i m e  s t e p   15202                              ( at time 7.5997394E+00 )

 nodal point  x-disp     y-disp      z-disp      x-vel       y-vel       z-vel      x-accl      y-accl      z-accl      x-coor      y-coor      z-coor
    22626 -3.47939E-03 1.23257E+00-5.60605E-01 1.57511E-03 6.43108E-01 2.15661E-02 2.61047E-03 2.15068E-01 1.01016E-01 4.65590E+00-2.69583E+01-4.55423E+01



 n o d a l   p r i n t   o u t   f o r   t i m e  s t e p   15202                              ( at time 7.5997394E+00 )

 nodal point  x-rot      y-rot       z-rot       x-rot vel   y-rot vel   z-rot vel   x-rot acc   y-rot acc   z-rot acc
    22626 -7.81743E-03-1.14097E-06-2.35920E-05-4.70366E-03 9.40366E-06-4.54048E-06-1.74658E-03 1.75949E-06 1.82552E-05



 n o d a l   p r i n t   o u t   f o r   t i m e  s t e p   15402                              ( at time 7.6997294E+00 )

 nodal point  x-disp     y-disp      z-disp      x-vel       y-vel       z-vel      x-accl      y-accl      z-accl      x-coor      y-coor      z-coor
    22626 -3.32895E-03 1.29788E+00-5.57916E-01 1.41086E-03 6.63181E-01 3.23287E-02-1.64266E-03 2.00750E-01 1.07638E-01 4.65605E+00-2.68929E+01-4.55396E+01



 n o d a l   p r i n t   o u t   f o r   t i m e  s t e p   15402                              ( at time 7.6997294E+00 )

 nodal point  x-rot      y-rot       z-rot       x-rot vel   y-rot vel   z-rot vel   x-rot acc   y-rot acc   z-rot acc
    22626 -8.29663E-03 2.33027E-07-2.40959E-05-4.87757E-03 1.14352E-05-1.41662E-05-1.73932E-03 2.03176E-05-9.62674E-05



 n o d a l   p r i n t   o u t   f o r   t i m e  s t e p   15602                              ( at time 7.7997194E+00 )

 nodal point  x-disp     y-disp      z-disp      x-vel       y-vel       z-vel      x-accl      y-accl      z-accl      x-coor      y-coor      z-coor
    22626 -3.18323E-03 1.36527E+00-5.54120E-01 1.36749E-03 6.84403E-01 4.40773E-02-4.33755E-04 2.12235E-01 1.17498E-01 4.65619E+00-2.68256E+01-4.55358E+01



 n o d a l   p r i n t   o u t   f o r   t i m e  s t e p   15602                              ( at time 7.7997194E+00 )

 nodal point  x-rot      y-rot       z-rot       x-rot vel   y-rot vel   z-rot vel   x-rot acc   y-rot acc   z-rot acc
    22626 -8.79360E-03 3.93655E-07-2.60695E-05-5.05114E-03-1.51617E-06-1.77161E-05-1.73583E-03-1.29527E-04-3.55020E-05



 n o d a l   p r i n t   o u t   f o r   t i m e  s t e p   15802                              ( at time 7.8997094E+00 )

 nodal point  x-disp     y-disp      z-disp      x-vel       y-vel       z-vel      x-accl      y-accl      z-accl      x-coor      y-coor      z-coor
    22626 -3.01144E-03 1.43475E+00-5.49123E-01 2.22864E-03 7.05314E-01 5.56736E-02 8.61239E-03 2.09140E-01 1.15974E-01 4.65636E+00-2.67561E+01-4.55308E+01



 n o d a l   p r i n t   o u t   f o r   t i m e  s t e p   15802                              ( at time 7.8997094E+00 )

 nodal point  x-rot      y-rot       z-rot       x-rot vel   y-rot vel   z-rot vel   x-rot acc   y-rot acc   z-rot acc
    22626 -9.30799E-03 9.63377E-07-2.75787E-05-5.23462E-03 9.71654E-06-1.19611E-05-1.83504E-03 1.12338E-04 5.75557E-05



 n o d a l   p r i n t   o u t   f o r   t i m e  s t e p   16002                              ( at time 7.9996994E+00 )

 nodal point  x-disp     y-disp      z-disp      x-vel       y-vel       z-vel      x-accl      y-accl      z-accl      x-coor      y-coor      z-coor
    22626 -2.77647E-03 1.50632E+00-5.42941E-01 2.20457E-03 7.25984E-01 6.76688E-02-2.40726E-04 2.06719E-01 1.19964E-01 4.65660E+00-2.66845E+01-4.55247E+01



 n o d a l   p r i n t   o u t   f o r   t i m e  s t e p   16002                              ( at time 7.9996994E+00 )

 nodal point  x-rot      y-rot       z-rot       x-rot vel   y-rot vel   z-rot vel   x-rot acc   y-rot acc   z-rot acc
    22626 -9.83989E-03 1.73096E-06-2.93298E-05-5.40908E-03 2.47441E-06-1.91434E-05-1.74471E-03-7.24283E-05-7.18299E-05



 n o d a l   p r i n t   o u t   f o r   t i m e  s t e p   16202                              ( at time 8.0996894E+00 )

 nodal point  x-disp     y-disp      z-disp      x-vel       y-vel       z-vel      x-accl      y-accl      z-accl      x-coor      y-coor      z-coor
    22626 -2.58813E-03 1.57997E+00-5.35526E-01 2.04998E-03 7.46611E-01 8.02592E-02-1.54609E-03 2.06289E-01 1.25917E-01 4.65679E+00-2.66109E+01-4.55172E+01



 n o d a l   p r i n t   o u t   f o r   t i m e  s t e p   16202                              ( at time 8.0996894E+00 )

 nodal point  x-rot      y-rot       z-rot       x-rot vel   y-rot vel   z-rot vel   x-rot acc   y-rot acc   z-rot acc
    22626 -1.03891E-02 2.07261E-06-3.05576E-05-5.58875E-03 6.26598E-06-5.90413E-06-1.79688E-03 3.79195E-05 1.32406E-04



 n o d a l   p r i n t   o u t   f o r   t i m e  s t e p   16402                              ( at time 8.1996794E+00 )

 nodal point  x-disp     y-disp      z-disp      x-vel       y-vel       z-vel      x-accl      y-accl      z-accl      x-coor      y-coor      z-coor
    22626 -2.34165E-03 1.65562E+00-5.26768E-01 2.91709E-03 7.66223E-01 9.47385E-02 8.67203E-03 1.96142E-01 1.44807E-01 4.65703E+00-2.65352E+01-4.55085E+01



 n o d a l   p r i n t   o u t   f o r   t i m e  s t e p   16402                              ( at time 8.1996794E+00 )

 nodal point  x-rot      y-rot       z-rot       x-rot vel   y-rot vel   z-rot vel   x-rot acc   y-rot acc   z-rot acc
    22626 -1.09564E-02 3.14282E-06-3.14351E-05-5.76167E-03 1.36326E-05-1.10896E-05-1.72942E-03 7.36742E-05-5.18596E-05



 n o d a l   p r i n t   o u t   f o r   t i m e  s t e p   16602                              ( at time 8.2996694E+00 )

 nodal point  x-disp     y-disp      z-disp      x-vel       y-vel       z-vel      x-accl      y-accl      z-accl      x-coor      y-coor      z-coor
    22626 -2.04244E-03 1.73325E+00-5.16541E-01 3.02983E-03 7.86203E-01 1.09365E-01 1.12755E-03 1.99814E-01 1.46281E-01 4.65733E+00-2.64576E+01-4.54983E+01



 n o d a l   p r i n t   o u t   f o r   t i m e  s t e p   16602                              ( at time 8.2996694E+00 )

 nodal point  x-rot      y-rot       z-rot       x-rot vel   y-rot vel   z-rot vel   x-rot acc   y-rot acc   z-rot acc
    22626 -1.15404E-02 4.54311E-06-3.18767E-05-5.92236E-03 1.48427E-05-1.08561E-06-1.60702E-03 1.21022E-05 1.00050E-04



 n o d a l   p r i n t   o u t   f o r   t i m e  s t e p   16802                              ( at time 8.3996594E+00 )

 nodal point  x-disp     y-disp      z-disp      x-vel       y-vel       z-vel      x-accl      y-accl      z-accl      x-coor      y-coor      z-coor
    22626 -1.72595E-03 1.81285E+00-5.04906E-01 3.29899E-03 8.05726E-01 1.23791E-01 2.69187E-03 1.95257E-01 1.44276E-01 4.65765E+00-2.63780E+01-4.54866E+01



 n o d a l   p r i n t   o u t   f o r   t i m e  s t e p   16802                              ( at time 8.3996594E+00 )

 nodal point  x-rot      y-rot       z-rot       x-rot vel   y-rot vel   z-rot vel   x-rot acc   y-rot acc   z-rot acc
    22626 -1.21405E-02 5.78758E-06-3.21817E-05-6.08110E-03 9.79319E-06-4.49169E-06-1.58765E-03-5.05006E-05-3.40643E-05



 n o d a l   p r i n t   o u t   f o r   t i m e  s t e p   17002                              ( at time 8.4996494E+00 )

 nodal point  x-disp     y-disp      z-disp      x-vel       y-vel       z-vel      x-accl      y-accl      z-accl      x-coor      y-coor      z-coor
    22626 -1.38948E-03 1.89437E+00-4.91753E-01 3.17863E-03 8.24732E-01 1.39576E-01-1.20372E-03 1.90078E-01 1.57864E-01 4.65799E+00-2.62965E+01-4.54735E+01



 n o d a l   p r i n t   o u t   f o r   t i m e  s t e p   17002                              ( at time 8.4996494E+00 )

 nodal point  x-rot      y-rot       z-rot       x-rot vel   y-rot vel   z-rot vel   x-rot acc   y-rot acc   z-rot acc
    22626 -1.27573E-02 6.82829E-06-3.29193E-05-6.25514E-03 1.65674E-05-8.38302E-06-1.74054E-03 6.77488E-05-3.89172E-05



 n o d a l   p r i n t   o u t   f o r   t i m e  s t e p   17202                              ( at time 8.5996394E+00 )

 nodal point  x-disp     y-disp      z-disp      x-vel       y-vel       z-vel      x-accl      y-accl      z-accl      x-coor      y-coor      z-coor
    22626 -1.07606E-03 1.97775E+00-4.77045E-01 3.18440E-03 8.43490E-01 1.54460E-01 5.77083E-05 1.87594E-01 1.48850E-01 4.65830E+00-2.62131E+01-4.54588E+01



 n o d a l   p r i n t   o u t   f o r   t i m e  s t e p   17202                              ( at time 8.5996394E+00 )

 nodal point  x-rot      y-rot       z-rot       x-rot vel   y-rot vel   z-rot vel   x-rot acc   y-rot acc   z-rot acc
    22626 -1.33905E-02 8.73243E-06-3.39735E-05-6.40505E-03 2.18700E-05-1.58741E-05-1.49923E-03 5.30314E-05-7.49182E-05



 n o d a l   p r i n t   o u t   f o r   t i m e  s t e p   17402                              ( at time 8.6996293E+00 )

 nodal point  x-disp     y-disp      z-disp      x-vel       y-vel       z-vel      x-accl      y-accl      z-accl      x-coor      y-coor      z-coor
    22626 -7.40938E-04 2.06302E+00-4.60803E-01 3.17206E-03 8.61666E-01 1.70807E-01-1.23428E-04 1.81777E-01 1.63488E-01 4.65863E+00-2.61278E+01-4.54425E+01



 n o d a l   p r i n t   o u t   f o r   t i m e  s t e p   17402                              ( at time 8.6996293E+00 )

 nodal point  x-rot      y-rot       z-rot       x-rot vel   y-rot vel   z-rot vel   x-rot acc   y-rot acc   z-rot acc
    22626 -1.40383E-02 1.10473E-05-3.51752E-05-6.55198E-03 2.21062E-05-8.26506E-06-1.46945E-03 2.36179E-06 7.60972E-05



 n o d a l   p r i n t   o u t   f o r   t i m e  s t e p   17602                              ( at time 8.7996193E+00 )

 nodal point  x-disp     y-disp      z-disp      x-vel       y-vel       z-vel      x-accl      y-accl      z-accl      x-coor      y-coor      z-coor
    22626 -4.10590E-04 2.15014E+00-4.42878E-01 3.69698E-03 8.80706E-01 1.87055E-01 5.24967E-03 1.90425E-01 1.62496E-01 4.65896E+00-2.60407E+01-4.54246E+01



 n o d a l   p r i n t   o u t   f o r   t i m e  s t e p   17602                              ( at time 8.7996193E+00 )

 nodal point  x-rot      y-rot       z-rot       x-rot vel   y-rot vel   z-rot vel   x-rot acc   y-rot acc   z-rot acc
    22626 -1.47004E-02 1.22811E-05-3.65509E-05-6.68956E-03 7.09551E-06-1.96186E-05-1.37596E-03-1.50122E-04-1.13547E-04



 n o d a l   p r i n t   o u t   f o r   t i m e  s t e p   17802                              ( at time 8.8996093E+00 )

 nodal point  x-disp     y-disp      z-disp      x-vel       y-vel       z-vel      x-accl      y-accl      z-accl      x-coor      y-coor      z-coor
    22626 -8.98725E-06 2.23911E+00-4.23326E-01 4.26373E-03 8.98668E-01 2.03843E-01 5.66809E-03 1.79632E-01 1.67896E-01 4.65937E+00-2.59517E+01-4.54050E+01



 n o d a l   p r i n t   o u t   f o r   t i m e  s t e p   17802                              ( at time 8.8996093E+00 )

 nodal point  x-rot      y-rot       z-rot       x-rot vel   y-rot vel   z-rot vel   x-rot acc   y-rot acc   z-rot acc
    22626 -1.53755E-02 1.39946E-05-3.83477E-05-6.81596E-03 2.56854E-05-1.16597E-05-1.26407E-03 1.85917E-04 7.95973E-05



 n o d a l   p r i n t   o u t   f o r   t i m e  s t e p   18002                              ( at time 8.9995993E+00 )

 nodal point  x-disp     y-disp      z-disp      x-vel       y-vel       z-vel      x-accl      y-accl      z-accl      x-coor      y-coor      z-coor
    22626  4.53120E-04 2.32989E+00-4.02090E-01 4.84674E-03 9.16628E-01 2.21183E-01 5.83075E-03 1.79616E-01 1.73414E-01 4.65983E+00-2.58609E+01-4.53838E+01



 n o d a l   p r i n t   o u t   f o r   t i m e  s t e p   18002                              ( at time 8.9995993E+00 )

 nodal point  x-rot      y-rot       z-rot       x-rot vel   y-rot vel   z-rot vel   x-rot acc   y-rot acc   z-rot acc
    22626 -1.60640E-02 1.65230E-05-3.90160E-05-6.94654E-03 1.29143E-05-1.20766E-05-1.30596E-03-1.27724E-04-4.16912E-06



 n o d a l   p r i n t   o u t   f o r   t i m e  s t e p   18202                              ( at time 9.0995893E+00 )

 nodal point  x-disp     y-disp      z-disp      x-vel       y-vel       z-vel      x-accl      y-accl      z-accl      x-coor      y-coor      z-coor
    22626  8.88417E-04 2.42235E+00-3.79065E-01 3.93137E-03 9.33459E-01 2.39258E-01-9.15469E-03 1.68329E-01 1.80769E-01 4.66026E+00-2.57685E+01-4.53608E+01



 n o d a l   p r i n t   o u t   f o r   t i m e  s t e p   18202                              ( at time 9.0995893E+00 )

 nodal point  x-rot      y-rot       z-rot       x-rot vel   y-rot vel   z-rot vel   x-rot acc   y-rot acc   z-rot acc
    22626 -1.67648E-02 1.71013E-05-4.10763E-05-7.06295E-03 7.92396E-06-2.93361E-05-1.16423E-03-4.99083E-05-1.72612E-04



 n o d a l   p r i n t   o u t   f o r   t i m e  s t e p   18402                              ( at time 9.1995793E+00 )

 nodal point  x-disp     y-disp      z-disp      x-vel       y-vel       z-vel      x-accl      y-accl      z-accl      x-coor      y-coor      z-coor
    22626  1.28315E-03 2.51650E+00-3.54211E-01 4.56262E-03 9.49507E-01 2.58249E-01 6.31313E-03 1.60502E-01 1.89938E-01 4.66066E+00-2.56743E+01-4.53359E+01



 n o d a l   p r i n t   o u t   f o r   t i m e  s t e p   18402                              ( at time 9.1995793E+00 )

 nodal point  x-rot      y-rot       z-rot       x-rot vel   y-rot vel   z-rot vel   x-rot acc   y-rot acc   z-rot acc
    22626 -1.74771E-02 1.82224E-05-4.41118E-05-7.17947E-03 1.69826E-05-3.51282E-05-1.16527E-03 9.05951E-05-5.79271E-05



 n o d a l   p r i n t   o u t   f o r   t i m e  s t e p   18602                              ( at time 9.2995693E+00 )

 nodal point  x-disp     y-disp      z-disp      x-vel       y-vel       z-vel      x-accl      y-accl      z-accl      x-coor      y-coor      z-coor
    22626  1.77796E-03 2.61228E+00-3.27452E-01 4.84233E-03 9.66532E-01 2.77352E-01 2.79743E-03 1.70270E-01 1.91046E-01 4.66115E+00-2.55786E+01-4.53092E+01



 n o d a l   p r i n t   o u t   f o r   t i m e  s t e p   18602                              ( at time 9.2995693E+00 )

 nodal point  x-rot      y-rot       z-rot       x-rot vel   y-rot vel   z-rot vel   x-rot acc   y-rot acc   z-rot acc
    22626 -1.82018E-02 1.96395E-05-4.77258E-05-7.30813E-03 1.22700E-05-3.61247E-05-1.28678E-03-4.71304E-05-9.96572E-06



 n o d a l   p r i n t   o u t   f o r   t i m e  s t e p   18802                              ( at time 9.3995593E+00 )

 nodal point  x-disp     y-disp      z-disp      x-vel       y-vel       z-vel      x-accl      y-accl      z-accl      x-coor      y-coor      z-coor
    22626  2.29937E-03 2.70971E+00-2.98694E-01 5.46755E-03 9.82264E-01 2.98323E-01 6.25283E-03 1.57327E-01 2.09727E-01 4.66167E+00-2.54811E+01-4.52804E+01



 n o d a l   p r i n t   o u t   f o r   t i m e  s t e p   18802                              ( at time 9.3995593E+00 )

 nodal point  x-rot      y-rot       z-rot       x-rot vel   y-rot vel   z-rot vel   x-rot acc   y-rot acc   z-rot acc
    22626 -1.89392E-02 2.05316E-05-5.12560E-05-7.42568E-03 5.33691E-06-3.69088E-05-1.17556E-03-6.93378E-05-7.84206E-06



 n o d a l   p r i n t   o u t   f o r   t i m e  s t e p   19002                              ( at time 9.4995493E+00 )

 nodal point  x-disp     y-disp      z-disp      x-vel       y-vel       z-vel      x-accl      y-accl      z-accl      x-coor      y-coor      z-coor
    22626  2.87818E-03 2.80872E+00-2.67849E-01 5.91446E-03 9.97815E-01 3.18823E-01 4.46952E-03 1.55534E-01 2.05021E-01 4.66225E+00-2.53821E+01-4.52496E+01



 n o d a l   p r i n t   o u t   f o r   t i m e  s t e p   19002                              ( at time 9.4995493E+00 )

 nodal point  x-rot      y-rot       z-rot       x-rot vel   y-rot vel   z-rot vel   x-rot acc   y-rot acc   z-rot acc
    22626 -1.96881E-02 2.11541E-05-5.49954E-05-7.54653E-03 9.89902E-06-3.64897E-05-1.20870E-03 4.56257E-05 4.19170E-06



 n o d a l   p r i n t   o u t   f o r   t i m e  s t e p   19202                              ( at time 9.5995393E+00 )

 nodal point  x-disp     y-disp      z-disp      x-vel       y-vel       z-vel      x-accl      y-accl      z-accl      x-coor      y-coor      z-coor
    22626  3.51159E-03 2.90925E+00-2.34837E-01 7.05761E-03 1.01287E+00 3.41596E-01 1.14325E-02 1.50584E-01 2.27753E-01 4.66289E+00-2.52816E+01-4.52166E+01



 n o d a l   p r i n t   o u t   f o r   t i m e  s t e p   19202                              ( at time 9.5995393E+00 )

 nodal point  x-rot      y-rot       z-rot       x-rot vel   y-rot vel   z-rot vel   x-rot acc   y-rot acc   z-rot acc
    22626 -2.04493E-02 2.25486E-05-5.81977E-05-7.68700E-03 2.25266E-05-2.73802E-05-1.40478E-03 1.26287E-04 9.11029E-05



 n o d a l   p r i n t   o u t   f o r   t i m e  s t e p   19402                              ( at time 9.6995293E+00 )

 nodal point  x-disp     y-disp      z-disp      x-vel       y-vel       z-vel      x-accl      y-accl      z-accl      x-coor      y-coor      z-coor
    22626  4.26510E-03 3.01129E+00-1.99493E-01 7.98545E-03 1.02744E+00 3.64680E-01 9.27934E-03 1.45723E-01 2.30863E-01 4.66364E+00-2.51795E+01-4.51812E+01



 n o d a l   p r i n t   o u t   f o r   t i m e  s t e p   19402                              ( at time 9.6995293E+00 )

 nodal point  x-rot      y-rot       z-rot       x-rot vel   y-rot vel   z-rot vel   x-rot acc   y-rot acc   z-rot acc
    22626 -2.12242E-02 2.51378E-05-6.01999E-05-7.82118E-03 2.89741E-05-1.11996E-05-1.34194E-03 6.44817E-05 1.61822E-04



 n o d a l   p r i n t   o u t   f o r   t i m e  s t e p   19602                              ( at time 9.7995193E+00 )

 nodal point  x-disp     y-disp      z-disp      x-vel       y-vel       z-vel      x-accl      y-accl      z-accl      x-coor      y-coor      z-coor
    22626  5.07155E-03 3.11482E+00-1.61807E-01 8.00477E-03 1.04256E+00 3.88966E-01 1.93306E-04 1.51139E-01 2.42882E-01 4.66445E+00-2.50760E+01-4.51435E+01



 n o d a l   p r i n t   o u t   f o r   t i m e  s t e p   19602                              ( at time 9.7995193E+00 )

 nodal point  x-rot      y-rot       z-rot       x-rot vel   y-rot vel   z-rot vel   x-rot acc   y-rot acc   z-rot acc
    22626 -2.20129E-02 2.75340E-05-6.13518E-05-7.96605E-03 2.37450E-05-5.76441E-06-1.44883E-03-5.22966E-05 5.43574E-05



 n o d a l   p r i n t   o u t   f o r   t i m e  s t e p   19802                              ( at time 9.8995093E+00 )

 nodal point  x-disp     y-disp      z-disp      x-vel       y-vel       z-vel      x-accl      y-accl      z-accl      x-coor      y-coor      z-coor
    22626  5.91381E-03 3.21975E+00-1.21638E-01 9.38841E-03 1.05608E+00 4.14254E-01 1.38378E-02 1.35240E-01 2.52910E-01 4.66529E+00-2.49711E+01-4.51034E+01



 n o d a l   p r i n t   o u t   f o r   t i m e  s t e p   19802                              ( at time 9.8995093E+00 )

 nodal point  x-rot      y-rot       z-rot       x-rot vel   y-rot vel   z-rot vel   x-rot acc   y-rot acc   z-rot acc
    22626 -2.28163E-02 3.12215E-05-6.17616E-05-8.10060E-03 4.86516E-05 3.82488E-06-1.34565E-03 2.49092E-04 9.59026E-05



 n o d a l   p r i n t   o u t   f o r   t i m e  s t e p   20003                              ( at time 9.9999992E+00 )

 nodal point  x-disp     y-disp      z-disp      x-vel       y-vel       z-vel      x-accl      y-accl      z-accl      x-coor      y-coor      z-coor
[...]
    22626 -1.03399E-01 1.45353E-03 1.29503E-03-1.48079E-02-1.10961E-05-7.49058E-05-9.20250E-04 3.70177E-04-2.26822E-04



 n o d a l   p r i n t   o u t   f o r   t i m e  s t e p   33604                              ( at time 1.6799819E+01 )

 nodal point  x-disp     y-disp      z-disp      x-vel       y-vel       z-vel      x-accl      y-accl      z-accl      x-coor      y-coor      z-coor
    22626  1.89169E-01 1.21648E+01 9.16801E+00 2.40597E-02 1.43887E+00 1.91325E+00 3.51936E-02 3.41549E-02-1.03127E-03 4.84854E+00-1.60260E+01-3.58137E+01



 n o d a l   p r i n t   o u t   f o r   t i m e  s t e p   33604                              ( at time 1.6799819E+01 )

 nodal point  x-rot      y-rot       z-rot       x-rot vel   y-rot vel   z-rot vel   x-rot acc   y-rot acc   z-rot acc
    22626 -1.04887E-01 1.45578E-03 1.29145E-03-1.48969E-02 2.46455E-05-3.23907E-05-8.89931E-04 3.57455E-04 4.25198E-04



 n o d a l   p r i n t   o u t   f o r   t i m e  s t e p   33804                              ( at time 1.6899809E+01 )

 nodal point  x-disp     y-disp      z-disp      x-vel       y-vel       z-vel      x-accl      y-accl      z-accl      x-coor      y-coor      z-coor
    22626  1.91482E-01 1.23086E+01 9.35931E+00 2.12281E-02 1.43725E+00 1.91270E+00-2.83184E-02-1.62390E-02-5.52705E-03 4.85086E+00-1.58823E+01-3.56224E+01



 n o d a l   p r i n t   o u t   f o r   t i m e  s t e p   33804                              ( at time 1.6899809E+01 )

 nodal point  x-rot      y-rot       z-rot       x-rot vel   y-rot vel   z-rot vel   x-rot acc   y-rot acc   z-rot acc
    22626 -1.06381E-01 1.45291E-03 1.28643E-03-1.49632E-02-6.40981E-05-4.92772E-05-6.63786E-04-8.87517E-04-1.68880E-04



 n o d a l   p r i n t   o u t   f o r   t i m e  s t e p   34004                              ( at time 1.6999799E+01 )

 nodal point  x-disp     y-disp      z-disp      x-vel       y-vel       z-vel      x-accl      y-accl      z-accl      x-coor      y-coor      z-coor
    22626  1.93634E-01 1.24524E+01 9.55038E+00 2.28110E-02 1.43883E+00 1.90913E+00 1.58306E-02 1.58649E-02-3.57000E-02 4.85301E+00-1.57384E+01-3.54313E+01



 n o d a l   p r i n t   o u t   f o r   t i m e  s t e p   34004                              ( at time 1.6999799E+01 )

 nodal point  x-rot      y-rot       z-rot       x-rot vel   y-rot vel   z-rot vel   x-rot acc   y-rot acc   z-rot acc
    22626 -1.07882E-01 1.44849E-03 1.28125E-03-1.50629E-02 6.75293E-06-4.89318E-05-9.96923E-04 7.08588E-04 3.45384E-06



 n o d a l   p r i n t   o u t   f o r   t i m e  s t e p   34204                              ( at time 1.7099789E+01 )

 nodal point  x-disp     y-disp      z-disp      x-vel       y-vel       z-vel      x-accl      y-accl      z-accl      x-coor      y-coor      z-coor
    22626  1.96006E-01 1.25964E+01 9.74112E+00 2.42332E-02 1.44058E+00 1.90542E+00 1.42234E-02 1.74574E-02-3.71323E-02 4.85538E+00-1.55944E+01-3.52406E+01



 n o d a l   p r i n t   o u t   f o r   t i m e  s t e p   34204                              ( at time 1.7099789E+01 )

 nodal point  x-rot      y-rot       z-rot       x-rot vel   y-rot vel   z-rot vel   x-rot acc   y-rot acc   z-rot acc
    22626 -1.09393E-01 1.44928E-03 1.27641E-03-1.51553E-02-2.25039E-05-6.07989E-05-9.23696E-04-2.92595E-04-1.18681E-04



 n o d a l   p r i n t   o u t   f o r   t i m e  s t e p   34404                              ( at time 1.7199779E+01 )

 nodal point  x-disp     y-disp      z-disp      x-vel       y-vel       z-vel      x-accl      y-accl      z-accl      x-coor      y-coor      z-coor
    22626  1.98397E-01 1.27405E+01 9.93157E+00 2.38672E-02 1.44120E+00 1.90356E+00-3.66043E-03 6.22687E-03-1.85519E-02 4.85777E+00-1.54503E+01-3.50501E+01



 n o d a l   p r i n t   o u t   f o r   t i m e  s t e p   34404                              ( at time 1.7199779E+01 )

 nodal point  x-rot      y-rot       z-rot       x-rot vel   y-rot vel   z-rot vel   x-rot acc   y-rot acc   z-rot acc
    22626 -1.10912E-01 1.44631E-03 1.27239E-03-1.52281E-02-3.90307E-05-3.99048E-05-7.27858E-04-1.65283E-04 2.08960E-04



 n o d a l   p r i n t   o u t   f o r   t i m e  s t e p   34604                              ( at time 1.7299769E+01 )

 nodal point  x-disp     y-disp      z-disp      x-vel       y-vel       z-vel      x-accl      y-accl      z-accl      x-coor      y-coor      z-coor
    22626  2.00765E-01 1.28847E+01 1.01216E+01 2.35176E-02 1.44312E+00 1.89679E+00-3.49614E-03 1.92330E-02-6.76993E-02 4.86014E+00-1.53061E+01-3.48601E+01



 n o d a l   p r i n t   o u t   f o r   t i m e  s t e p   34604                              ( at time 1.7299769E+01 )

 nodal point  x-rot      y-rot       z-rot       x-rot vel   y-rot vel   z-rot vel   x-rot acc   y-rot acc   z-rot acc
    22626 -1.12439E-01 1.44290E-03 1.26832E-03-1.53186E-02-3.29502E-05-6.32711E-05-9.05029E-04 6.08112E-05-2.33689E-04



 n o d a l   p r i n t   o u t   f o r   t i m e  s t e p   34804                              ( at time 1.7399759E+01 )

 nodal point  x-disp     y-disp      z-disp      x-vel       y-vel       z-vel      x-accl      y-accl      z-accl      x-coor      y-coor      z-coor
    22626  2.03140E-01 1.30291E+01 1.03110E+01 2.37867E-02 1.44465E+00 1.89090E+00 2.69091E-03 1.52387E-02-5.89592E-02 4.86251E+00-1.51617E+01-3.46708E+01



 n o d a l   p r i n t   o u t   f o r   t i m e  s t e p   34804                              ( at time 1.7399759E+01 )

 nodal point  x-rot      y-rot       z-rot       x-rot vel   y-rot vel   z-rot vel   x-rot acc   y-rot acc   z-rot acc
    22626 -1.13976E-01 1.44023E-03 1.26237E-03-1.54323E-02-2.17085E-05-4.04891E-05-1.13762E-03 1.12428E-04 2.27841E-04



 n o d a l   p r i n t   o u t   f o r   t i m e  s t e p   35004                              ( at time 1.7499749E+01 )

 nodal point  x-disp     y-disp      z-disp      x-vel       y-vel       z-vel      x-accl      y-accl      z-accl      x-coor      y-coor      z-coor
    22626  2.05589E-01 1.31737E+01 1.04998E+01 2.52613E-02 1.44679E+00 1.88449E+00 1.47478E-02 2.13837E-02-6.40487E-02 4.86496E+00-1.50172E+01-3.44819E+01



 n o d a l   p r i n t   o u t   f o r   t i m e  s t e p   35004                              ( at time 1.7499749E+01 )

 nodal point  x-rot      y-rot       z-rot       x-rot vel   y-rot vel   z-rot vel   x-rot acc   y-rot acc   z-rot acc
    22626 -1.15522E-01 1.43752E-03 1.25806E-03-1.55065E-02-4.03490E-05-6.04663E-05-7.42206E-04-1.86426E-04-1.99795E-04



 n o d a l   p r i n t   o u t   f o r   t i m e  s t e p   35204                              ( at time 1.7599739E+01 )

 nodal point  x-disp     y-disp      z-disp      x-vel       y-vel       z-vel      x-accl      y-accl      z-accl      x-coor      y-coor      z-coor
    22626  2.08086E-01 1.33184E+01 1.06878E+01 2.44240E-02 1.44843E+00 1.87705E+00-8.37354E-03 1.64822E-02-7.44935E-02 4.86746E+00-1.48724E+01-3.42939E+01



 n o d a l   p r i n t   o u t   f o r   t i m e  s t e p   35204                              ( at time 1.7599739E+01 )

 nodal point  x-rot      y-rot       z-rot       x-rot vel   y-rot vel   z-rot vel   x-rot acc   y-rot acc   z-rot acc
    22626 -1.17076E-01 1.43295E-03 1.25185E-03-1.55659E-02-4.71201E-05-4.70137E-05-5.94359E-04-6.77171E-05 1.34539E-04



 n o d a l   p r i n t   o u t   f o r   t i m e  s t e p   35404                              ( at time 1.7699729E+01 )

 nodal point  x-disp     y-disp      z-disp      x-vel       y-vel       z-vel      x-accl      y-accl      z-accl      x-coor      y-coor      z-coor
    22626  2.10499E-01 1.34634E+01 1.08750E+01 2.41762E-02 1.45212E+00 1.86760E+00-2.47865E-03 3.68171E-02-9.44194E-02 4.86987E+00-1.47274E+01-3.41067E+01



 n o d a l   p r i n t   o u t   f o r   t i m e  s t e p   35404                              ( at time 1.7699729E+01 )

 nodal point  x-rot      y-rot       z-rot       x-rot vel   y-rot vel   z-rot vel   x-rot acc   y-rot acc   z-rot acc
    22626 -1.18639E-01 1.42898E-03 1.24810E-03-1.56692E-02-3.64264E-05-5.79740E-05-1.03232E-03 1.06949E-04-1.09616E-04



 n o d a l   p r i n t   o u t   f o r   t i m e  s t e p   35604                              ( at time 1.7799719E+01 )

 nodal point  x-disp     y-disp      z-disp      x-vel       y-vel       z-vel      x-accl      y-accl      z-accl      x-coor      y-coor      z-coor
    22626  2.12998E-01 1.36088E+01 1.10612E+01 2.58584E-02 1.45509E+00 1.85774E+00 1.68233E-02 2.97621E-02-9.86905E-02 4.87237E+00-1.45820E+01-3.39205E+01



 n o d a l   p r i n t   o u t   f o r   t i m e  s t e p   35604                              ( at time 1.7799719E+01 )

 nodal point  x-rot      y-rot       z-rot       x-rot vel   y-rot vel   z-rot vel   x-rot acc   y-rot acc   z-rot acc
    22626 -1.20212E-01 1.42458E-03 1.24046E-03-1.57674E-02-4.08788E-05-6.46358E-05-9.82561E-04-4.45282E-05-6.66231E-05



 n o d a l   p r i n t   o u t   f o r   t i m e  s t e p   35804                              ( at time 1.7899709E+01 )

 nodal point  x-disp     y-disp      z-disp      x-vel       y-vel       z-vel      x-accl      y-accl      z-accl      x-coor      y-coor      z-coor
    22626  2.15550E-01 1.37545E+01 1.12465E+01 2.44782E-02 1.45833E+00 1.84582E+00-1.38035E-02 3.24261E-02-1.19155E-01 4.87493E+00-1.44363E+01-3.37352E+01



 n o d a l   p r i n t   o u t   f o r   t i m e  s t e p   35804                              ( at time 1.7899709E+01 )

 nodal point  x-rot      y-rot       z-rot       x-rot vel   y-rot vel   z-rot vel   x-rot acc   y-rot acc   z-rot acc
    22626 -1.21793E-01 1.42047E-03 1.23727E-03-1.58517E-02-2.55351E-05-8.22476E-06-8.42456E-04 1.53454E-04 5.64172E-04



 n o d a l   p r i n t   o u t   f o r   t i m e  s t e p   36004                              ( at time 1.7999699E+01 )

 nodal point  x-disp     y-disp      z-disp      x-vel       y-vel       z-vel      x-accl      y-accl      z-accl      x-coor      y-coor      z-coor
    22626  2.18068E-01 1.39005E+01 1.14305E+01 2.61019E-02 1.46154E+00 1.83454E+00 1.62390E-02 3.20738E-02-1.12876E-01 4.87744E+00-1.42903E+01-3.35512E+01



 n o d a l   p r i n t   o u t   f o r   t i m e  s t e p   36004                              ( at time 1.7999699E+01 )

 nodal point  x-rot      y-rot       z-rot       x-rot vel   y-rot vel   z-rot vel   x-rot acc   y-rot acc   z-rot acc
    22626 -1.23382E-01 1.41538E-03 1.23194E-03-1.59476E-02-6.30645E-05-7.12088E-05-9.59778E-04-3.75329E-04-6.29898E-04



 n o d a l   p r i n t   o u t   f o r   t i m e  s t e p   36204                              ( at time 1.8099689E+01 )

 nodal point  x-disp     y-disp      z-disp      x-vel       y-vel       z-vel      x-accl      y-accl      z-accl      x-coor      y-coor      z-coor
    22626  2.20558E-01 1.40470E+01 1.16135E+01 2.44361E-02 1.46654E+00 1.82364E+00-1.66598E-02 5.00248E-02-1.09004E-01 4.87993E+00-1.41439E+01-3.33682E+01



 n o d a l   p r i n t   o u t   f o r   t i m e  s t e p   36204                              ( at time 1.8099689E+01 )

 nodal point  x-rot      y-rot       z-rot       x-rot vel   y-rot vel   z-rot vel   x-rot acc   y-rot acc   z-rot acc
    22626 -1.24981E-01 1.41040E-03 1.22664E-03-1.60271E-02-2.94281E-05-2.74827E-05-7.95124E-04 3.36395E-04 4.37300E-04



 n o d a l   p r i n t   o u t   f o r   t i m e  s t e p   36404                              ( at time 1.8199679E+01 )

 nodal point  x-disp     y-disp      z-disp      x-vel       y-vel       z-vel      x-accl      y-accl      z-accl      x-coor      y-coor      z-coor
    22626  2.23133E-01 1.41938E+01 1.17951E+01 2.61920E-02 1.47026E+00 1.81018E+00 1.75613E-02 3.71247E-02-1.34613E-01 4.88251E+00-1.39971E+01-3.31866E+01



 n o d a l   p r i n t   o u t   f o r   t i m e  s t e p   36404                              ( at time 1.8199679E+01 )

 nodal point  x-rot      y-rot       z-rot       x-rot vel   y-rot vel   z-rot vel   x-rot acc   y-rot acc   z-rot acc
    22626 -1.26587E-01 1.40737E-03 1.22358E-03-1.61046E-02-5.39590E-05-4.57978E-05-7.74983E-04-2.45336E-04-1.83171E-04



 n o d a l   p r i n t   o u t   f o r   t i m e  s t e p   36604                              ( at time 1.8299669E+01 )

 nodal point  x-disp     y-disp      z-disp      x-vel       y-vel       z-vel      x-accl      y-accl      z-accl      x-coor      y-coor      z-coor
    22626  2.25715E-01 1.43410E+01 1.19756E+01 2.51877E-02 1.47416E+00 1.79757E+00-1.00447E-02 3.90887E-02-1.26056E-01 4.88509E+00-1.38498E+01-3.30062E+01



 n o d a l   p r i n t   o u t   f o r   t i m e  s t e p   36604                              ( at time 1.8299669E+01 )

 nodal point  x-rot      y-rot       z-rot       x-rot vel   y-rot vel   z-rot vel   x-rot acc   y-rot acc   z-rot acc
    22626 -1.28202E-01 1.40180E-03 1.21893E-03-1.61927E-02-4.37845E-05-2.79410E-05-8.80497E-04 1.01755E-04 1.78585E-04



 n o d a l   p r i n t   o u t   f o r   t i m e  s t e p   36804                              ( at time 1.8399659E+01 )

 nodal point  x-disp     y-disp      z-disp      x-vel       y-vel       z-vel      x-accl      y-accl      z-accl      x-coor      y-coor      z-coor
    22626  2.28209E-01 1.44887E+01 1.21546E+01 2.57524E-02 1.47951E+00 1.78309E+00 5.64753E-03 5.34379E-02-1.44822E-01 4.88758E+00-1.37022E+01-3.28271E+01



 n o d a l   p r i n t   o u t   f o r   t i m e  s t e p   36804                              ( at time 1.8399659E+01 )

 nodal point  x-rot      y-rot       z-rot       x-rot vel   y-rot vel   z-rot vel   x-rot acc   y-rot acc   z-rot acc
    22626 -1.29825E-01 1.39739E-03 1.21625E-03-1.62721E-02-4.45558E-05-5.04113E-05-7.94245E-04-7.71340E-06-2.24728E-04



 n o d a l   p r i n t   o u t   f o r   t i m e  s t e p   37004                              ( at time 1.8499649E+01 )

 nodal point  x-disp     y-disp      z-disp      x-vel       y-vel       z-vel      x-accl      y-accl      z-accl      x-coor      y-coor      z-coor
    22626  2.30700E-01 1.46368E+01 1.23322E+01 2.38816E-02 1.48416E+00 1.77030E+00-1.87090E-02 4.65579E-02-1.27923E-01 4.89007E+00-1.35540E+01-3.26495E+01



 n o d a l   p r i n t   o u t   f o r   t i m e  s t e p   37004                              ( at time 1.8499649E+01 )

 nodal point  x-rot      y-rot       z-rot       x-rot vel   y-rot vel   z-rot vel   x-rot acc   y-rot acc   z-rot acc
    22626 -1.31456E-01 1.39188E-03 1.20951E-03-1.63394E-02-5.80491E-05-5.46713E-05-6.73073E-04-1.34946E-04-4.26039E-05



 n o d a l   p r i n t   o u t   f o r   t i m e  s t e p   37204                              ( at time 1.8599639E+01 )

 nodal point  x-disp     y-disp      z-disp      x-vel       y-vel       z-vel      x-accl      y-accl      z-accl      x-coor      y-coor      z-coor
    22626  2.33239E-01 1.47854E+01 1.25084E+01 2.59849E-02 1.48908E+00 1.75455E+00 2.10354E-02 4.91340E-02-1.57532E-01 4.89261E+00-1.34054E+01-3.24733E+01



 n o d a l   p r i n t   o u t   f o r   t i m e  s t e p   37204                              ( at time 1.8599639E+01 )

 nodal point  x-rot      y-rot       z-rot       x-rot vel   y-rot vel   z-rot vel   x-rot acc   y-rot acc   z-rot acc
    22626 -1.33095E-01 1.38751E-03 1.20634E-03-1.64193E-02-4.22973E-05-1.78732E-05-7.99331E-04 1.57535E-04 3.68022E-04



 n o d a l   p r i n t   o u t   f o r   t i m e  s t e p   37404                              ( at time 1.8699629E+01 )

 nodal point  x-disp     y-disp      z-disp      x-vel       y-vel       z-vel      x-accl      y-accl      z-accl      x-coor      y-coor      z-coor
    22626  2.35727E-01 1.49345E+01 1.26830E+01 2.38089E-02 1.49286E+00 1.73892E+00-2.17627E-02 3.78786E-02-1.56274E-01 4.89510E+00-1.32564E+01-3.22987E+01



 n o d a l   p r i n t   o u t   f o r   t i m e  s t e p   37404                              ( at time 1.8699629E+01 )

 nodal point  x-rot      y-rot       z-rot       x-rot vel   y-rot vel   z-rot vel   x-rot acc   y-rot acc   z-rot acc
    22626 -1.34742E-01 1.38199E-03 1.20251E-03-1.65091E-02-6.89574E-05-7.18845E-05-8.97859E-04-2.66625E-04-5.40163E-04



 n o d a l   p r i n t   o u t   f o r   t i m e  s t e p   37604                              ( at time 1.8799619E+01 )

 nodal point  x-disp     y-disp      z-disp      x-vel       y-vel       z-vel      x-accl      y-accl      z-accl      x-coor      y-coor      z-coor
    22626  2.38073E-01 1.50841E+01 1.28561E+01 2.35328E-02 1.49925E+00 1.72293E+00-2.76147E-03 6.39271E-02-1.59910E-01 4.89745E+00-1.31067E+01-3.21256E+01



 n o d a l   p r i n t   o u t   f o r   t i m e  s t e p   37604                              ( at time 1.8799619E+01 )

 nodal point  x-rot      y-rot       z-rot       x-rot vel   y-rot vel   z-rot vel   x-rot acc   y-rot acc   z-rot acc
    22626 -1.36397E-01 1.37474E-03 1.19627E-03-1.65842E-02-5.53573E-05-4.89701E-05-7.51437E-04 1.36016E-04 2.29169E-04



 n o d a l   p r i n t   o u t   f o r   t i m e  s t e p   37804                              ( at time 1.8899609E+01 )

 nodal point  x-disp     y-disp      z-disp      x-vel       y-vel       z-vel      x-accl      y-accl      z-accl      x-coor      y-coor      z-coor
    22626  2.40506E-01 1.52342E+01 1.30275E+01 2.50568E-02 1.50347E+00 1.70614E+00 1.52422E-02 4.21205E-02-1.67907E-01 4.89988E+00-1.29566E+01-3.19542E+01



 n o d a l   p r i n t   o u t   f o r   t i m e  s t e p   37804                              ( at time 1.8899609E+01 )

 nodal point  x-rot      y-rot       z-rot       x-rot vel   y-rot vel   z-rot vel   x-rot acc   y-rot acc   z-rot acc
    22626 -1.38058E-01 1.37031E-03 1.19270E-03-1.66633E-02-4.43935E-05-4.07801E-05-7.91101E-04 1.09648E-04 8.19084E-05



 n o d a l   p r i n t   o u t   f o r   t i m e  s t e p   38004                              ( at time 1.8999599E+01 )

 nodal point  x-disp     y-disp      z-disp      x-vel       y-vel       z-vel      x-accl      y-accl      z-accl      x-coor      y-coor      z-coor
    22626  2.42885E-01 1.53849E+01 1.31973E+01 2.25102E-02 1.50973E+00 1.68915E+00-2.54691E-02 6.26776E-02-1.69971E-01 4.90226E+00-1.28060E+01-3.17844E+01



 n o d a l   p r i n t   o u t   f o r   t i m e  s t e p   38004                              ( at time 1.8999599E+01 )

 nodal point  x-rot      y-rot       z-rot       x-rot vel   y-rot vel   z-rot vel   x-rot acc   y-rot acc   z-rot acc
    22626 -1.39728E-01 1.36392E-03 1.18776E-03-1.67433E-02-7.84175E-05-5.66482E-05-8.00042E-04-3.40270E-04-1.58696E-04



 n o d a l   p r i n t   o u t   f o r   t i m e  s t e p   38204                              ( at time 1.9099589E+01 )

 nodal point  x-disp     y-disp      z-disp      x-vel       y-vel       z-vel      x-accl      y-accl      z-accl      x-coor      y-coor      z-coor
    22626  2.45135E-01 1.55361E+01 1.33653E+01 2.27147E-02 1.51597E+00 1.67126E+00 2.04604E-03 6.23605E-02-1.78881E-01 4.90451E+00-1.26547E+01-3.16164E+01



 n o d a l   p r i n t   o u t   f o r   t i m e  s t e p   38204                              ( at time 1.9099589E+01 )

 nodal point  x-rot      y-rot       z-rot       x-rot vel   y-rot vel   z-rot vel   x-rot acc   y-rot acc   z-rot acc
    22626 -1.41405E-01 1.35714E-03 1.18264E-03-1.68198E-02-6.56214E-05-4.73647E-05-7.64980E-04 1.27974E-04 9.28451E-05



 n o d a l   p r i n t   o u t   f o r   t i m e  s t e p   38404                              ( at time 1.9199579E+01 )

 nodal point  x-disp     y-disp      z-disp      x-vel       y-vel       z-vel      x-accl      y-accl      z-accl      x-coor      y-coor      z-coor
    22626  2.47424E-01 1.56880E+01 1.35315E+01 2.22660E-02 1.52189E+00 1.65324E+00-4.48782E-03 5.91690E-02-1.80260E-01 4.90680E+00-1.25029E+01-3.14502E+01



 n o d a l   p r i n t   o u t   f o r   t i m e  s t e p   38404                              ( at time 1.9199579E+01 )

 nodal point  x-rot      y-rot       z-rot       x-rot vel   y-rot vel   z-rot vel   x-rot acc   y-rot acc   z-rot acc
    22626 -1.43090E-01 1.35139E-03 1.17784E-03-1.68911E-02-5.70611E-05-5.09181E-05-7.13030E-04 8.56117E-05-3.55375E-05
