 LSTC 50th% Full_FE H-III Dummy (Beta Version, February 17, 2019)        
                    ls-dyna smp s R16 R16.0_619_d222963 date 03/18/2025

{BEGIN LEGEND}
 Entity #        Title
        1     Upper_Neck_Force_INJURY                                              
{END LEGEND}



 line#1  section#     time        x-force     y-force     z-force    magnitude
 line#2  resultant  moments       x-moment    y-moment    z-moment   magnitude
 line#3  centroids                x           y           z            area  
           1    0.00000E+00     0.0000E+00  0.0000E+00  0.0000E+00  0.0000E+00
ac ID =   33377                 0.0000E+00  0.0000E+00  0.0000E+00  0.0000E+00
                               -3.7437E-01  1.0501E+01 -4.6940E+01  0.0000E+00

           1    1.00490E-01     1.3626E-04 -4.9880E-03  2.5983E-01  2.5988E-01
ac ID =   33377                 4.2544E-01 -1.2521E+00 -2.7100E-02  1.3227E+00
                               -3.7387E-01  1.0590E+01 -4.6886E+01  2.5147E+03

           1    2.00480E-01    -4.4333E-02  5.3781E-04  4.4115E-01  4.4337E-01
ac ID =   33377                 3.0578E-01 -1.5968E+00  2.0802E-02  1.6259E+00
                               -3.7386E-01  1.0591E+01 -4.6888E+01  2.5147E+03

           1    3.00470E-01     1.4901E-02 -3.1314E-03  2.1775E-01  2.1829E-01
ac ID =   33377                 2.6921E-02 -3.3729E-01  6.6501E-02  3.4484E-01
                               -3.7382E-01  1.0591E+01 -4.6889E+01  2.5147E+03

           1    4.00460E-01     3.0318E-03  1.0676E-02  8.8014E-02  8.8711E-02
ac ID =   33377                -4.9453E-01 -9.4226E-01 -4.5023E-03  1.0642E+00
                               -3.7383E-01  1.0592E+01 -4.6890E+01  2.5147E+03

           1    5.00450E-01    -4.0702E-02  4.3595E-03  1.6186E-01  1.6696E-01
ac ID =   33377                -3.9837E-01 -1.5074E+00 -1.1551E-01  1.5634E+00
                               -3.7385E-01  1.0594E+01 -4.6893E+01  2.5147E+03

           1    6.00440E-01    -1.0606E-02  4.2531E-03  3.4310E-01  3.4329E-01
ac ID =   33377                 9.7584E-02 -1.3232E+00 -3.3753E-02  1.3272E+00
                               -3.7385E-01  1.0595E+01 -4.6897E+01  2.5147E+03

           1    7.00430E-01     2.9901E-03 -5.3052E-03  2.9437E-01  2.9443E-01
ac ID =   33377                 1.3708E-01 -4.9962E-01  7.8692E-02  5.2403E-01
                               -3.7389E-01  1.0597E+01 -4.6901E+01  2.5147E+03

           1    8.00420E-01    -3.0816E-02 -1.0010E-03  1.0118E-01  1.0578E-01
ac ID =   33377                 8.4501E-02 -1.0601E+00  4.5210E-02  1.0644E+00
                               -3.7394E-01  1.0599E+01 -4.6905E+01  2.5147E+03

           1    9.00410E-01    -3.8911E-02  6.9902E-04  6.2348E-02  7.3497E-02
ac ID =   33377                 8.9537E-02 -1.0692E+00 -4.0199E-03  1.0729E+00
                               -3.7399E-01  1.0601E+01 -4.6909E+01  2.5147E+03

           1    1.00040E+00     1.4861E-02 -3.9294E-03  2.2094E-01  2.2147E-01
ac ID =   33377                 3.6925E-01 -2.8936E-01 -5.6051E-02  4.7246E-01
                               -3.7400E-01  1.0604E+01 -4.6915E+01  2.5147E+03

           1    1.10039E+00    -1.2536E-04 -3.0762E-03  2.7068E-01  2.7070E-01
ac ID =   33377                 3.4449E-01 -8.8273E-01 -4.8766E-02  9.4882E-01
                               -3.7401E-01  1.0607E+01 -4.6921E+01  2.5147E+03

           1    1.20038E+00    -3.2489E-02 -5.8859E-04  1.2900E-01  1.3303E-01
ac ID =   33377                -1.5535E-01 -1.1812E+00  1.1896E-02  1.1914E+00
                               -3.7403E-01  1.0610E+01 -4.6927E+01  2.5147E+03

           1    1.30037E+00    -1.0188E-02  4.5298E-03  7.4908E-02  7.5734E-02
ac ID =   33377                -3.0064E-01 -8.8809E-01  1.6568E-02  9.3775E-01
                               -3.7407E-01  1.0612E+01 -4.6933E+01  2.5147E+03

           1    1.40036E+00     7.7734E-03  3.5103E-03  1.7300E-01  1.7321E-01
ac ID =   33377                -2.9217E-01 -8.3254E-01  2.6754E-02  8.8273E-01
                               -3.7409E-01  1.0616E+01 -4.6941E+01  2.5147E+03

           1    1.50035E+00    -2.6760E-02  1.2952E-03  3.2859E-01  3.2968E-01
ac ID =   33377                -2.0712E-02 -1.5833E+00 -4.3204E-02  1.5840E+00
                               -3.7413E-01  1.0620E+01 -4.6949E+01  2.5147E+03

           1    1.60034E+00    -1.8886E-02 -2.0599E-03  2.2124E-01  2.2205E-01
ac ID =   33377                -1.7845E-02 -1.3768E+00 -1.2543E-02  1.3769E+00
                               -3.7419E-01  1.0624E+01 -4.6957E+01  2.5147E+03

           1    1.70033E+00    -2.9142E-03 -3.6286E-04  5.8446E-02  5.8520E-02
ac ID =   33377                -4.7420E-02 -6.6924E-01  8.3828E-02  6.7613E-01
                               -3.7427E-01  1.0627E+01 -4.6965E+01  2.5147E+03

           1    1.80032E+00    -2.0062E-02  1.1210E-03  7.7438E-02  8.0003E-02
ac ID =   33377                 8.5305E-02 -1.1142E+00  1.2616E-01  1.1246E+00
                               -3.7434E-01  1.0632E+01 -4.6974E+01  2.5147E+03

           1    1.90031E+00    -8.4280E-03 -2.6849E-03  1.9175E-01  1.9196E-01
ac ID =   33377                 2.7342E-01 -8.2492E-01 -7.3095E-02  8.7212E-01
                               -3.7439E-01  1.0636E+01 -4.6984E+01  2.5147E+03

           1    2.00030E+00    -2.3326E-03 -4.2748E-03  1.5645E-01  1.5652E-01
ac ID =   33377                 2.0083E-01 -4.3756E-01 -1.4216E-01  5.0200E-01
                               -3.7444E-01  1.0641E+01 -4.6993E+01  2.5147E+03

           1    2.10029E+00    -2.5124E-02  2.5527E-03  2.5895E-03  2.5386E-02
ac ID =   33377                -7.4235E-02 -6.9333E-01  3.6148E-02  6.9823E-01
                               -3.7450E-01  1.0645E+01 -4.7003E+01  2.5147E+03

           1    2.20028E+00    -1.2782E-02  4.9199E-03  3.7656E-03  1.4204E-02
ac ID =   33377                -2.3733E-01 -6.6056E-01  2.4050E-02  7.0232E-01
                               -3.7456E-01  1.0650E+01 -4.7013E+01  2.5147E+03

           1    2.30027E+00     1.1009E-03  4.5272E-03  1.4843E-01  1.4850E-01
ac ID =   33377                -1.4494E-01 -8.1263E-01 -6.5618E-02  8.2805E-01
                               -3.7462E-01  1.0655E+01 -4.7024E+01  2.5147E+03

           1    2.40026E+00    -1.7145E-02 -1.5240E-03  1.8899E-01  1.8977E-01
ac ID =   33377                -1.5860E-01 -1.1884E+00  7.4468E-02  1.2012E+00
                               -3.7469E-01  1.0661E+01 -4.7035E+01  2.5147E+03

           1    2.50025E+00    -1.8622E-02  1.2407E-03  3.8433E-05  1.8664E-02
ac ID =   33377                -1.9578E-01 -8.8688E-01  1.2895E-01  9.1734E-01
                               -3.7479E-01  1.0665E+01 -4.7045E+01  2.5147E+03

           1    2.60024E+00    -6.9431E-03  5.6510E-03 -7.6742E-02  7.7263E-02
ac ID =   33377                -2.1100E-01 -1.8021E-01  4.1035E-02  2.8050E-01
                               -3.7490E-01  1.0671E+01 -4.7056E+01  2.5147E+03

           1    2.70023E+00    -1.1927E-02 -1.9163E-03  1.0026E-02  1.5699E-02
ac ID =   33377                 3.2773E-02 -2.1982E-01  3.3645E-02  2.2478E-01
                               -3.7501E-01  1.0676E+01 -4.7068E+01  2.5147E+03

           1    2.80022E+00    -5.4323E-03 -4.5811E-03  6.3515E-02  6.3911E-02
ac ID =   33377                 3.6907E-01 -1.3696E-01 -1.4821E-02  3.9394E-01
                               -3.7510E-01  1.0682E+01 -4.7079E+01  2.5147E+03

           1    2.90021E+00     5.0606E-03 -2.8212E-03 -9.8404E-03  1.1419E-02
ac ID =   33377                 1.4747E-01  3.1658E-01 -7.6972E-02  3.5762E-01
                               -3.7520E-01  1.0687E+01 -4.7090E+01  2.5147E+03

           1    3.00020E+00    -7.0475E-03  2.2515E-03 -8.9347E-02  8.9652E-02
ac ID =   33377                -3.7540E-02  7.6801E-02 -5.3386E-02  1.0079E-01
                               -3.7530E-01  1.0692E+01 -4.7101E+01  2.5147E+03

           1    3.10019E+00    -2.5872E-03  5.3230E-04 -8.2111E-03  8.6255E-03
ac ID =   33377                 4.1000E-02 -2.5424E-01 -3.0076E-02  2.5927E-01
                               -3.7538E-01  1.0698E+01 -4.7113E+01  2.5147E+03

           1    3.20018E+00     3.8611E-03  1.8564E-03  6.9098E-02  6.9230E-02
ac ID =   33377                -2.1381E-02 -3.3935E-01  1.6966E-02  3.4044E-01
                               -3.7545E-01  1.0703E+01 -4.7125E+01  2.5147E+03

           1    3.30017E+00     1.4636E-03  1.2021E-03  1.2109E-02  1.2256E-02
ac ID =   33377                -2.2858E-01 -3.4486E-01  1.1784E-01  4.3019E-01
                               -3.7554E-01  1.0708E+01 -4.7137E+01  2.5147E+03

           1    3.40016E+00    -8.2064E-04  3.1575E-03 -1.0461E-01  1.0466E-01
ac ID =   33377                -3.0666E-01  1.3411E-02  1.0769E-01  3.2530E-01
                               -3.7565E-01  1.0714E+01 -4.7148E+01  2.5147E+03

           1    3.50015E+00    -1.1183E-03  3.3198E-03 -1.3841E-01  1.3846E-01
ac ID =   33377                -1.6237E-01  3.3831E-01  3.2248E-02  3.7664E-01
                               -3.7576E-01  1.0719E+01 -4.7160E+01  2.5147E+03

           1    3.60014E+00     1.1968E-02 -2.3906E-03 -6.2428E-02  6.3609E-02
ac ID =   33377                 9.4286E-02  8.5262E-01 -1.0569E-01  8.6431E-01
                               -3.7586E-01  1.0724E+01 -4.7172E+01  2.5147E+03

           1    3.70013E+00     1.8834E-02 -3.7672E-03 -6.1217E-02  6.4160E-02
ac ID =   33377                 2.7882E-01  1.0253E+00 -1.6478E-01  1.0753E+00
                               -3.7595E-01  1.0730E+01 -4.7183E+01  2.5147E+03

           1    3.80012E+00     2.0864E-02 -2.1867E-03 -1.5237E-01  1.5380E-01
ac ID =   33377                 2.3250E-01  1.3591E+00 -7.8966E-02  1.3811E+00
                               -3.7605E-01  1.0735E+01 -4.7195E+01  2.5147E+03

           1    3.90011E+00     2.3147E-02 -1.1809E-05 -2.1938E-01  2.2060E-01
ac ID =   33377                 1.2953E-01  1.4453E+00 -7.1017E-02  1.4528E+00
                               -3.7611E-01  1.0741E+01 -4.7206E+01  2.5147E+03

           1    4.00010E+00     1.8001E-02 -2.3712E-04 -1.6880E-01  1.6975E-01
ac ID =   33377                -7.9571E-02  1.0575E+00 -3.2289E-03  1.0605E+00
                               -3.7615E-01  1.0747E+01 -4.7218E+01  2.5147E+03

           1    4.10009E+00     2.6336E-02  1.4855E-04 -1.4231E-01  1.4473E-01
ac ID =   33377                -5.4159E-02  1.0163E+00  7.2408E-04  1.0177E+00
                               -3.7619E-01  1.0753E+01 -4.7230E+01  2.5147E+03

           1    4.20008E+00     2.4406E-02  3.7422E-03 -1.9953E-01  2.0105E-01
ac ID =   33377                -2.1799E-01  1.0464E+00  1.2205E-01  1.0758E+00
                               -3.7623E-01  1.0760E+01 -4.7241E+01  2.5147E+03

           1    4.30007E+00     3.2321E-02  5.8895E-03 -3.1250E-01  3.1422E-01
ac ID =   33377                -4.1714E-01  1.5370E+00  8.7079E-02  1.5950E+00
                               -3.7628E-01  1.0767E+01 -4.7252E+01  2.5147E+03

           1    4.40006E+00     4.8248E-02  6.0186E-03 -2.8941E-01  2.9347E-01
ac ID =   33377                -1.8077E-01  1.9942E+00 -5.5015E-02  2.0032E+00
                               -3.7634E-01  1.0774E+01 -4.7264E+01  2.5147E+03

           1    4.50005E+00     4.8534E-02 -1.1205E-04 -2.2011E-01  2.2540E-01
ac ID =   33377                 1.2601E-01  1.8891E+00 -1.1578E-01  1.8969E+00
                               -3.7638E-01  1.0783E+01 -4.7276E+01  2.5147E+03

           1    4.60004E+00     5.4520E-02 -2.7972E-03 -2.7866E-01  2.8396E-01
ac ID =   33377                 2.1989E-01  2.0665E+00 -1.2347E-02  2.0782E+00
                               -3.7642E-01  1.0792E+01 -4.7288E+01  2.5147E+03

           1    4.70003E+00     6.0066E-02  5.9975E-04 -3.6490E-01  3.6982E-01
ac ID =   33377                 1.3508E-01  2.1507E+00 -1.4526E-02  2.1550E+00
                               -3.7647E-01  1.0802E+01 -4.7299E+01  2.5147E+03

           1    4.80002E+00     6.8352E-02  3.5688E-03 -4.0341E-01  4.0918E-01
ac ID =   33377                -1.4374E-02  2.2675E+00 -3.4122E-02  2.2678E+00
                               -3.7649E-01  1.0813E+01 -4.7311E+01  2.5147E+03

           1    4.90001E+00     6.4381E-02 -4.1580E-03 -3.5471E-01  3.6053E-01
ac ID =   33377                 6.1068E-02  2.2095E+00 -9.7125E-02  2.2125E+00
                               -3.7650E-01  1.0825E+01 -4.7324E+01  2.5147E+03

           1    5.00000E+00     7.2847E-02  4.7997E-03 -3.5917E-01  3.6651E-01
ac ID =   33377                -3.1760E-01  2.3354E+00  8.0602E-02  2.3583E+00
                               -3.7651E-01  1.0838E+01 -4.7336E+01  2.5147E+03

           1    5.10049E+00     7.6928E-02  2.2637E-03 -4.4804E-01  4.5460E-01
ac ID =   33377                -2.5799E-01  2.6258E+00  1.9578E-01  2.6457E+00
                               -3.7653E-01  1.0853E+01 -4.7349E+01  2.5147E+03

           1    5.20048E+00     8.0104E-02  6.2773E-03 -4.8542E-01  4.9202E-01
ac ID =   33377                -3.0052E-01  2.8391E+00  1.0417E-02  2.8550E+00
                               -3.7656E-01  1.0869E+01 -4.7362E+01  2.5147E+03

           1    5.30047E+00     8.6947E-02  3.3121E-03 -4.8085E-01  4.8866E-01
ac ID =   33377                -3.5614E-01  3.0664E+00 -1.0997E-01  3.0890E+00
                               -3.7659E-01  1.0887E+01 -4.7376E+01  2.5147E+03

           1    5.40046E+00     9.2640E-02 -8.6914E-04 -4.7593E-01  4.8486E-01
ac ID =   33377                 5.2830E-02  3.0528E+00 -1.9106E-01  3.0592E+00
                               -3.7664E-01  1.0906E+01 -4.7389E+01  2.5147E+03

           1    5.50045E+00     1.0843E-01 -7.2366E-04 -5.6950E-01  5.7973E-01
ac ID =   33377                 8.2849E-02  3.5442E+00 -2.0065E-01  3.5508E+00
                               -3.7668E-01  1.0927E+01 -4.7403E+01  2.5147E+03

           1    5.60044E+00     9.1027E-02  1.9481E-03 -6.4973E-01  6.5608E-01
ac ID =   33377                -1.1395E-01  3.4571E+00  6.9579E-02  3.4597E+00
                               -3.7671E-01  1.0949E+01 -4.7418E+01  2.5147E+03

           1    5.70043E+00     1.0183E-01  3.7263E-03 -6.6847E-01  6.7619E-01
ac ID =   33377                -5.5774E-02  3.5297E+00  9.4435E-02  3.5314E+00
                               -3.7677E-01  1.0973E+01 -4.7432E+01  2.5147E+03

           1    5.80042E+00     1.1567E-01 -3.7522E-03 -6.4845E-01  6.5869E-01
ac ID =   33377                -1.2456E-03  3.8438E+00  3.8688E-02  3.8440E+00
                               -3.7677E-01  1.0999E+01 -4.7447E+01  2.5147E+03

           1    5.90041E+00     1.1166E-01  3.0347E-03 -6.7407E-01  6.8326E-01
ac ID =   33377                -1.8859E-01  3.8018E+00 -8.4090E-02  3.8074E+00
                               -3.7679E-01  1.1027E+01 -4.7462E+01  2.5147E+03

           1    6.00040E+00     1.1417E-01  1.1078E-02 -7.5098E-01  7.5969E-01
ac ID =   33377                -5.7541E-01  4.0904E+00  1.3190E-01  4.1328E+00
                               -3.7684E-01  1.1056E+01 -4.7478E+01  2.5147E+03

           1    6.10039E+00     1.2255E-01  1.2557E-03 -7.6402E-01  7.7379E-01
ac ID =   33377                -1.5716E-01  4.0489E+00  7.2638E-02  4.0526E+00
                               -3.7689E-01  1.1088E+01 -4.7494E+01  2.5147E+03

           1    6.20038E+00     1.2779E-01 -1.4109E-03 -7.5746E-01  7.6817E-01
ac ID =   33377                -2.0402E-01  4.0999E+00 -8.7006E-02  4.1059E+00
                               -3.7691E-01  1.1121E+01 -4.7510E+01  2.5147E+03

           1    6.30037E+00     1.1051E-01  7.4389E-03 -7.8032E-01  7.8814E-01
ac ID =   33377                -3.7853E-01  3.8116E+00  7.1730E-03  3.8304E+00
                               -3.7694E-01  1.1157E+01 -4.7526E+01  2.5147E+03

           1    6.40036E+00     1.3483E-01  1.6839E-03 -9.0218E-01  9.1220E-01
ac ID =   33377                 2.7658E-02  4.4640E+00 -9.9976E-02  4.4653E+00
                               -3.7701E-01  1.1194E+01 -4.7543E+01  2.5147E+03

           1    6.50035E+00     1.3998E-01 -3.4357E-03 -9.5271E-01  9.6294E-01
ac ID =   33377                -7.9508E-02  5.1290E+00  5.2264E-02  5.1298E+00
                               -3.7701E-01  1.1233E+01 -4.7559E+01  2.5147E+03

           1    6.60034E+00     1.3304E-01  1.1061E-03 -9.4372E-01  9.5305E-01
ac ID =   33377                -7.3124E-02  4.8348E+00  8.5475E-02  4.8361E+00
                               -3.7702E-01  1.1275E+01 -4.7576E+01  2.5147E+03

           1    6.70033E+00     1.3881E-01  7.2265E-03 -9.7299E-01  9.8286E-01
ac ID =   33377                -3.1600E-01  5.3522E+00  9.1405E-02  5.3623E+00
                               -3.7704E-01  1.1319E+01 -4.7593E+01  2.5147E+03

           1    6.80032E+00     1.6303E-01 -1.6948E-04 -1.0201E+00  1.0331E+00
ac ID =   33377                -4.6730E-02  5.5726E+00  3.8567E-02  5.5729E+00
                               -3.7701E-01  1.1364E+01 -4.7611E+01  2.5147E+03

           1    6.90031E+00     1.4011E-01  2.1018E-03 -1.0928E+00  1.1017E+00
ac ID =   33377                -3.5892E-01  5.5746E+00 -1.3638E-01  5.5878E+00
                               -3.7698E-01  1.1412E+01 -4.7628E+01  2.5147E+03

           1    7.00030E+00     1.4937E-01  8.2840E-03 -1.1049E+00  1.1150E+00
ac ID =   33377                -5.1387E-01  5.5606E+00 -1.5659E-01  5.5865E+00
                               -3.7696E-01  1.1462E+01 -4.7645E+01  2.5147E+03

           1    7.10029E+00     1.6826E-01  7.8752E-03 -1.1436E+00  1.1559E+00
ac ID =   33377                -3.5329E-01  5.8688E+00 -4.9532E-02  5.8797E+00
                               -3.7694E-01  1.1513E+01 -4.7662E+01  2.5147E+03

           1    7.20028E+00     1.6208E-01 -3.1833E-03 -1.2334E+00  1.2440E+00
ac ID =   33377                -2.1951E-01  6.1194E+00 -9.2525E-02  6.1241E+00
                               -3.7686E-01  1.1567E+01 -4.7679E+01  2.5147E+03

           1    7.30027E+00     1.5917E-01  7.6921E-03 -1.3112E+00  1.3208E+00
ac ID =   33377                -3.9866E-01  6.3167E+00  3.0961E-02  6.3293E+00
                               -3.7682E-01  1.1623E+01 -4.7696E+01  2.5147E+03

           1    7.40026E+00     1.8441E-01  1.0945E-02 -1.3653E+00  1.3777E+00
ac ID =   33377                -3.0614E-01  7.2303E+00  2.2493E-02  7.2368E+00
                               -3.7675E-01  1.1681E+01 -4.7713E+01  2.5147E+03

           1    7.50025E+00     1.8739E-01 -9.9849E-03 -1.3659E+00  1.3787E+00
ac ID =   33377                 8.0297E-02  7.2885E+00 -2.4823E-02  7.2889E+00
                               -3.7661E-01  1.1742E+01 -4.7730E+01  2.5147E+03

           1    7.60024E+00     1.8398E-01  8.3345E-03 -1.4131E+00  1.4250E+00
ac ID =   33377                -2.7755E-01  7.4301E+00  8.2617E-02  7.4357E+00
                               -3.7648E-01  1.1804E+01 -4.7746E+01  2.5147E+03

           1    7.70023E+00     1.9077E-01  1.9692E-03 -1.4586E+00  1.4710E+00
ac ID =   33377                -3.3703E-01  7.5085E+00  1.0751E-02  7.5160E+00
                               -3.7629E-01  1.1868E+01 -4.7762E+01  2.5147E+03

           1    7.80022E+00     1.9396E-01  9.8300E-03 -1.5094E+00  1.5218E+00
ac ID =   33377                -3.9465E-01  7.5333E+00 -3.2754E-02  7.5438E+00
                               -3.7609E-01  1.1934E+01 -4.7777E+01  2.5147E+03

           1    7.90021E+00     1.9526E-01 -7.5059E-04 -1.5399E+00  1.5522E+00
ac ID =   33377                -3.9784E-01  7.7355E+00 -1.8764E-01  7.7480E+00
                               -3.7583E-01  1.2002E+01 -4.7792E+01  2.5147E+03

           1    8.00020E+00     2.0586E-01  1.0722E-02 -1.5868E+00  1.6001E+00
ac ID =   33377                -6.8890E-01  8.0737E+00 -2.5601E-01  8.1071E+00
                               -3.7557E-01  1.2073E+01 -4.7806E+01  2.5147E+03

           1    8.10019E+00     2.1243E-01  5.1131E-03 -1.6805E+00  1.6939E+00
ac ID =   33377                -4.9656E-01  8.6694E+00 -9.2380E-02  8.6841E+00
                               -3.7531E-01  1.2145E+01 -4.7820E+01  2.5147E+03

           1    8.20018E+00     2.1763E-01 -1.7338E-03 -1.7338E+00  1.7474E+00
ac ID =   33377                -1.2771E-01  9.0158E+00  2.0990E-01  9.0191E+00
                               -3.7503E-01  1.2219E+01 -4.7833E+01  2.5147E+03

           1    8.30017E+00     2.3121E-01  7.2302E-03 -1.7707E+00  1.7858E+00
ac ID =   33377                -3.2239E-01  9.5507E+00  2.6894E-01  9.5599E+00
                               -3.7473E-01  1.2295E+01 -4.7845E+01  2.5147E+03

           1    8.40016E+00     2.3133E-01  6.5663E-04 -1.8083E+00  1.8231E+00
ac ID =   33377                -1.8063E-01  9.7490E+00 -5.4966E-02  9.7509E+00
                               -3.7439E-01  1.2374E+01 -4.7857E+01  2.5147E+03

           1    8.50015E+00     2.3498E-01 -6.9044E-03 -1.8739E+00  1.8886E+00
ac ID =   33377                -3.3710E-02  1.0143E+01 -3.8978E-01  1.0150E+01
                               -3.7403E-01  1.2454E+01 -4.7867E+01  2.5147E+03

           1    8.60014E+00     2.3255E-01 -2.5849E-03 -1.9287E+00  1.9427E+00
ac ID =   33377                -2.1061E-01  1.0265E+01 -2.5394E-01  1.0270E+01
                               -3.7367E-01  1.2535E+01 -4.7877E+01  2.5147E+03

           1    8.70013E+00     2.3960E-01  7.1129E-03 -1.9759E+00  1.9903E+00
ac ID =   33377                -5.7639E-01  1.0330E+01  3.7357E-02  1.0346E+01
                               -3.7330E-01  1.2619E+01 -4.7886E+01  2.5147E+03

           1    8.80012E+00     2.4992E-01  1.5987E-02 -2.0405E+00  2.0558E+00
ac ID =   33377                -7.3628E-01  1.0640E+01  1.2267E-01  1.0667E+01
                               -3.7295E-01  1.2704E+01 -4.7893E+01  2.5147E+03

           1    8.90011E+00     2.6182E-01  9.0482E-03 -2.0896E+00  2.1060E+00
ac ID =   33377                -7.2516E-01  1.1150E+01  6.6689E-02  1.1174E+01
                               -3.7248E-01  1.2791E+01 -4.7900E+01  2.5147E+03

           1    9.00010E+00     2.6849E-01 -1.8084E-03 -2.1535E+00  2.1702E+00
ac ID =   33377                -4.3535E-01  1.1753E+01 -1.7728E-01  1.1763E+01
                               -3.7196E-01  1.2880E+01 -4.7905E+01  2.5147E+03

           1    9.10009E+00     2.6556E-01  1.7834E-02 -2.1877E+00  2.2039E+00
ac ID =   33377                -7.1126E-01  1.1974E+01  5.2246E-02  1.1996E+01
                               -3.7151E-01  1.2971E+01 -4.7909E+01  2.5147E+03

           1    9.20008E+00     2.8371E-01  4.8086E-03 -2.2286E+00  2.2466E+00
ac ID =   33377                -4.0550E-01  1.2299E+01  1.8564E-01  1.2307E+01
                               -3.7096E-01  1.3063E+01 -4.7912E+01  2.5147E+03

           1    9.30007E+00     2.8352E-01 -1.4078E-03 -2.2801E+00  2.2977E+00
ac ID =   33377                -2.2766E-01  1.2358E+01  2.3649E-01  1.2363E+01
                               -3.7032E-01  1.3157E+01 -4.7913E+01  2.5147E+03

           1    9.40006E+00     2.7932E-01  3.7725E-03 -2.3295E+00  2.3462E+00
ac ID =   33377                -3.3624E-01  1.2498E+01  6.4127E-02  1.2502E+01
                               -3.6967E-01  1.3253E+01 -4.7912E+01  2.5147E+03

           1    9.50005E+00     2.7972E-01  1.1818E-02 -2.3728E+00  2.3893E+00
ac ID =   33377                -5.6276E-01  1.2825E+01 -3.5106E-01  1.2843E+01
                               -3.6897E-01  1.3350E+01 -4.7911E+01  2.5147E+03

           1    9.60004E+00     2.9410E-01  4.3235E-04 -2.3964E+00  2.4144E+00
ac ID =   33377                -5.4541E-01  1.3297E+01 -3.7595E-01  1.3313E+01
                               -3.6819E-01  1.3448E+01 -4.7907E+01  2.5147E+03

           1    9.70003E+00     3.0478E-01  1.1977E-03 -2.4259E+00  2.4449E+00
ac ID =   33377                -5.7941E-01  1.3691E+01  2.8530E-02  1.3703E+01
                               -3.6737E-01  1.3548E+01 -4.7902E+01  2.5147E+03

           1    9.80002E+00     3.0416E-01  1.6500E-02 -2.4704E+00  2.4891E+00
ac ID =   33377                -1.0380E+00  1.3727E+01  2.7218E-01  1.3769E+01
                               -3.6655E-01  1.3649E+01 -4.7894E+01  2.5147E+03

           1    9.90001E+00     3.0678E-01  2.6449E-03 -2.5094E+00  2.5281E+00
ac ID =   33377                -6.2595E-01  1.4161E+01  1.8195E-01  1.4176E+01
                               -3.6568E-01  1.3752E+01 -4.7885E+01  2.5147E+03

           1    1.00005E+01     3.1951E-01 -5.4462E-03 -2.5415E+00  2.5615E+00
ac ID =   33377                -3.8336E-01  1.4458E+01 -7.9700E-02  1.4463E+01
                               -3.6476E-01  1.3856E+01 -4.7874E+01  2.5147E+03

           1    1.01005E+01     3.1204E-01  5.2858E-03 -2.5841E+00  2.6028E+00
ac ID =   33377                -4.9381E-01  1.4642E+01 -3.1583E-01  1.4654E+01
                               -3.6384E-01  1.3962E+01 -4.7861E+01  2.5147E+03

           1    1.02005E+01     3.1536E-01  2.2260E-04 -2.6364E+00  2.6552E+00
ac ID =   33377                -3.2367E-01  1.4762E+01 -8.4350E-02  1.4766E+01
                               -3.6287E-01  1.4068E+01 -4.7845E+01  2.5147E+03

           1    1.03005E+01     3.2368E-01 -5.2633E-03 -2.6697E+00  2.6893E+00
ac ID =   33377                -9.0241E-02  1.5056E+01  8.5672E-02  1.5056E+01
                               -3.6186E-01  1.4175E+01 -4.7827E+01  2.5147E+03

           1    1.04005E+01     3.2099E-01 -1.9471E-03 -2.6829E+00  2.7021E+00
ac ID =   33377                -3.2529E-01  1.5079E+01 -1.1389E-01  1.5083E+01
                               -3.6078E-01  1.4284E+01 -4.7807E+01  2.5147E+03

           1    1.05004E+01     3.3083E-01  7.9122E-03 -2.6994E+00  2.7196E+00
ac ID =   33377                -5.6823E-01  1.5187E+01 -2.2984E-01  1.5199E+01
                               -3.5969E-01  1.4393E+01 -4.7784E+01  2.5147E+03

           1    1.06004E+01     3.4178E-01 -7.4434E-03 -2.7263E+00  2.7476E+00
ac ID =   33377                -1.4000E-01  1.5585E+01 -1.4570E-01  1.5587E+01
                               -3.5852E-01  1.4503E+01 -4.7759E+01  2.5147E+03

           1    1.07004E+01     3.4801E-01 -2.9283E-03 -2.7524E+00  2.7744E+00
ac ID =   33377                -2.7683E-01  1.5778E+01  1.5148E-01  1.5781E+01
                               -3.5732E-01  1.4614E+01 -4.7731E+01  2.5147E+03

           1    1.08004E+01     3.4162E-01  1.0084E-02 -2.7732E+00  2.7942E+00
ac ID =   33377                -5.4132E-01  1.5779E+01  1.8730E-01  1.5789E+01
                               -3.5612E-01  1.4726E+01 -4.7700E+01  2.5147E+03

           1    1.09004E+01     3.5163E-01  3.1135E-03 -2.8110E+00  2.8329E+00
ac ID =   33377                -1.7270E-01  1.5872E+01 -4.6694E-02  1.5873E+01
                               -3.5484E-01  1.4839E+01 -4.7667E+01  2.5147E+03

           1    1.10004E+01     3.6735E-01 -1.0546E-02 -2.8518E+00  2.8754E+00
ac ID =   33377                 2.5827E-01  1.6494E+01 -3.8538E-01  1.6501E+01
                               -3.5348E-01  1.4953E+01 -4.7632E+01  2.5147E+03

           1    1.11004E+01     3.6070E-01  1.9695E-03 -2.8593E+00  2.8819E+00
ac ID =   33377                -1.0987E-02  1.6597E+01 -3.8983E-01  1.6601E+01
                               -3.5209E-01  1.5068E+01 -4.7594E+01  2.5147E+03

           1    1.12004E+01     3.6474E-01  6.3066E-03 -2.8673E+00  2.8904E+00
ac ID =   33377                -4.1875E-02  1.7075E+01 -3.7166E-02  1.7075E+01
                               -3.5066E-01  1.5184E+01 -4.7554E+01  2.5147E+03

           1    1.13004E+01     3.8082E-01 -1.0149E-02 -2.8592E+00  2.8845E+00
ac ID =   33377                 3.1733E-01  1.7408E+01  2.7018E-01  1.7413E+01
                               -3.4912E-01  1.5301E+01 -4.7511E+01  2.5147E+03

           1    1.14004E+01     3.7029E-01 -8.9694E-03 -2.8434E+00  2.8674E+00
ac ID =   33377                 1.3693E-01  1.7065E+01  3.2357E-01  1.7069E+01
                               -3.4750E-01  1.5418E+01 -4.7466E+01  2.5147E+03

           1    1.15003E+01     3.5343E-01  3.0510E-03 -2.8106E+00  2.8327E+00
ac ID =   33377                -4.1914E-02  1.6668E+01  2.5230E-01  1.6670E+01
                               -3.4591E-01  1.5537E+01 -4.7418E+01  2.5147E+03

           1    1.16003E+01     3.5783E-01 -2.1841E-02 -2.8048E+00  2.8276E+00
ac ID =   33377                 5.4050E-01  1.6943E+01  1.2559E-01  1.6952E+01
                               -3.4430E-01  1.5655E+01 -4.7367E+01  2.5147E+03

           1    1.17003E+01     3.8790E-01 -8.6758E-03 -2.8419E+00  2.8683E+00
ac ID =   33377                 3.1380E-01  1.7341E+01 -2.7384E-02  1.7343E+01
                               -3.4273E-01  1.5775E+01 -4.7313E+01  2.5147E+03

           1    1.18003E+01     3.5844E-01  2.5527E-03 -2.8482E+00  2.8707E+00
ac ID =   33377                 2.6177E-01  1.6903E+01  3.6769E-01  1.6909E+01
                               -3.4116E-01  1.5894E+01 -4.7256E+01  2.5147E+03

           1    1.19003E+01     3.7064E-01 -2.1070E-02 -2.8240E+00  2.8483E+00
ac ID =   33377                 1.0087E+00  1.7427E+01  2.1111E-01  1.7458E+01
                               -3.3956E-01  1.6015E+01 -4.7196E+01  2.5147E+03

           1    1.20003E+01     3.7215E-01 -1.3668E-02 -2.7868E+00  2.8116E+00
ac ID =   33377                 7.5947E-01  1.7089E+01 -2.7576E-01  1.7108E+01
                               -3.3796E-01  1.6135E+01 -4.7134E+01  2.5147E+03

           1    1.21003E+01     3.8990E-01 -1.4723E-03 -2.7981E+00  2.8251E+00
ac ID =   33377                 5.2750E-01  1.7175E+01 -3.9749E-01  1.7188E+01
                               -3.3633E-01  1.6256E+01 -4.7068E+01  2.5147E+03

           1    1.22003E+01     3.8431E-01 -4.5249E-03 -2.7690E+00  2.7956E+00
ac ID =   33377                 5.7360E-01  1.6937E+01 -3.7920E-01  1.6951E+01
                               -3.3471E-01  1.6377E+01 -4.7000E+01  2.5147E+03

           1    1.23003E+01     3.7965E-01 -2.0786E-02 -2.7242E+00  2.7506E+00
ac ID =   33377                 7.3060E-01  1.6803E+01  7.3884E-02  1.6819E+01
                               -3.3301E-01  1.6499E+01 -4.6929E+01  2.5147E+03

           1    1.24003E+01     3.8242E-01  2.4803E-03 -2.6923E+00  2.7194E+00
ac ID =   33377                 2.4709E-01  1.6448E+01  4.3830E-01  1.6455E+01
                               -3.3134E-01  1.6621E+01 -4.6855E+01  2.5147E+03

           1    1.25002E+01     3.8451E-01  6.1813E-03 -2.6768E+00  2.7043E+00
ac ID =   33377                 1.3911E-01  1.6571E+01  8.1337E-02  1.6572E+01
                               -3.2969E-01  1.6743E+01 -4.6778E+01  2.5147E+03

           1    1.26002E+01     3.6224E-01 -2.9637E-03 -2.6502E+00  2.6748E+00
ac ID =   33377                 6.1742E-01  1.6065E+01 -4.8596E-01  1.6084E+01
                               -3.2793E-01  1.6866E+01 -4.6698E+01  2.5147E+03

           1    1.27002E+01     3.7377E-01 -8.1947E-03 -2.6163E+00  2.6428E+00
ac ID =   33377                 5.3487E-01  1.6231E+01 -5.7801E-01  1.6250E+01
                               -3.2609E-01  1.6988E+01 -4.6616E+01  2.5147E+03

           1    1.28002E+01     3.9372E-01  9.7338E-03 -2.5837E+00  2.6136E+00
ac ID =   33377                 3.8408E-01  1.6787E+01 -2.0400E-01  1.6793E+01
                               -3.2424E-01  1.7111E+01 -4.6531E+01  2.5147E+03

           1    1.29002E+01     3.6795E-01  6.3434E-03 -2.5341E+00  2.5606E+00
ac ID =   33377                 6.5222E-01  1.5996E+01 -5.1732E-02  1.6009E+01
                               -3.2232E-01  1.7235E+01 -4.6443E+01  2.5147E+03

           1    1.30002E+01     3.6207E-01  5.5340E-03 -2.4914E+00  2.5176E+00
ac ID =   33377                 4.2564E-01  1.6136E+01  8.0180E-02  1.6142E+01
                               -3.2028E-01  1.7358E+01 -4.6353E+01  2.5147E+03

           1    1.31002E+01     3.7890E-01 -4.9349E-03 -2.4595E+00  2.4885E+00
ac ID =   33377                 5.4595E-01  1.5781E+01 -5.7018E-02  1.5791E+01
                               -3.1823E-01  1.7482E+01 -4.6260E+01  2.5147E+03

           1    1.32002E+01     3.7318E-01  5.8807E-03 -2.4012E+00  2.4300E+00
ac ID =   33377                 4.4329E-01  1.5492E+01 -3.5625E-01  1.5502E+01
                               -3.1614E-01  1.7606E+01 -4.6165E+01  2.5147E+03

           1    1.33002E+01     3.5661E-01  1.5175E-02 -2.3294E+00  2.3566E+00
ac ID =   33377                -1.1140E-02  1.4748E+01  8.1020E-02  1.4749E+01
                               -3.1401E-01  1.7730E+01 -4.6067E+01  2.5147E+03

           1    1.34002E+01     3.7190E-01 -7.8046E-04 -2.3188E+00  2.3485E+00
ac ID =   33377                 3.5231E-01  1.5247E+01  2.3615E-01  1.5253E+01
                               -3.1188E-01  1.7855E+01 -4.5967E+01  2.5147E+03

           1    1.35001E+01     3.8092E-01  2.6190E-03 -2.3038E+00  2.3351E+00
ac ID =   33377                 5.1029E-01  1.5329E+01  2.6927E-01  1.5339E+01
                               -3.0974E-01  1.7980E+01 -4.5865E+01  2.5147E+03

           1    1.36001E+01     3.4836E-01  8.7339E-03 -2.2242E+00  2.2513E+00
ac ID =   33377                 3.6026E-01  1.4397E+01  1.0109E-01  1.4402E+01
                               -3.0759E-01  1.8106E+01 -4.5761E+01  2.5147E+03

           1    1.37001E+01     3.8965E-01  1.2843E-02 -2.1162E+00  2.1518E+00
ac ID =   33377                 3.8469E-01  1.4513E+01 -3.4886E-01  1.4522E+01
                               -3.0551E-01  1.8232E+01 -4.5655E+01  2.5147E+03

           1    1.38001E+01     3.8121E-01 -2.9227E-03 -2.1129E+00  2.1470E+00
ac ID =   33377                 4.9950E-01  1.3970E+01 -3.2466E-01  1.3983E+01
                               -3.0337E-01  1.8359E+01 -4.5547E+01  2.5147E+03

           1    1.39001E+01     3.3705E-01  1.1821E-03 -2.0724E+00  2.0997E+00
ac ID =   33377                 1.7704E-01  1.3452E+01 -7.8129E-02  1.3453E+01
                               -3.0125E-01  1.8486E+01 -4.5437E+01  2.5147E+03

           1    1.40001E+01     3.5107E-01  1.1661E-02 -1.9473E+00  1.9787E+00
ac ID =   33377                 2.9640E-01  1.2436E+01 -4.6838E-02  1.2440E+01
                               -2.9920E-01  1.8613E+01 -4.5326E+01  2.5147E+03

           1    1.41001E+01     3.7475E-01  2.0718E-02 -1.9444E+00  1.9803E+00
ac ID =   33377                -1.9567E-01  1.2898E+01  2.6746E-01  1.2902E+01
                               -2.9714E-01  1.8742E+01 -4.5213E+01  2.5147E+03

           1    1.42001E+01     3.4900E-01  3.0938E-03 -1.8860E+00  1.9181E+00
ac ID =   33377                 1.4705E-02  1.2097E+01 -3.8550E-01  1.2103E+01
                               -2.9509E-01  1.8870E+01 -4.5098E+01  2.5147E+03

           1    1.43001E+01     3.0492E-01  1.2659E-02 -1.7545E+00  1.7809E+00
ac ID =   33377                -1.4597E-01  1.0933E+01 -6.9862E-01  1.0957E+01
                               -2.9311E-01  1.9000E+01 -4.4982E+01  2.5147E+03

           1    1.44001E+01     3.5691E-01 -1.2243E-03 -1.7275E+00  1.7640E+00
ac ID =   33377                 2.0129E-01  1.1307E+01  1.6146E-01  1.1309E+01
                               -2.9108E-01  1.9129E+01 -4.4865E+01  2.5147E+03

           1    1.45000E+01     3.5137E-01  6.1197E-03 -1.6955E+00  1.7315E+00
ac ID =   33377                 2.1091E-01  1.0944E+01  6.4758E-02  1.0947E+01
                               -2.8912E-01  1.9259E+01 -4.4746E+01  2.5147E+03

           1    1.46000E+01     2.8466E-01  2.5936E-02 -1.6071E+00  1.6323E+00
ac ID =   33377                -5.3261E-02  9.3963E+00 -2.9474E-01  9.4011E+00
                               -2.8717E-01  1.9390E+01 -4.4626E+01  2.5147E+03

           1    1.47000E+01     3.1396E-01 -1.1373E-02 -1.5412E+00  1.5729E+00
ac ID =   33377                 4.6008E-01  9.5717E+00 -3.3588E-01  9.5886E+00
                               -2.8514E-01  1.9521E+01 -4.4504E+01  2.5147E+03

           1    1.48005E+01     3.0809E-01 -9.2337E-03 -1.5059E+00  1.5371E+00
ac ID =   33377                 6.9076E-01  9.9293E+00 -4.7261E-01  9.9645E+00
                               -2.8323E-01  1.9653E+01 -4.4381E+01  2.5147E+03

           1    1.49005E+01     2.6648E-01  3.9666E-02 -1.4331E+00  1.4582E+00
ac ID =   33377                -6.0459E-01  8.2806E+00  3.6983E-01  8.3108E+00
                               -2.8127E-01  1.9785E+01 -4.4257E+01  2.5147E+03

           1    1.50005E+01     2.6446E-01  1.3931E-02 -1.3338E+00  1.3598E+00
ac ID =   33377                 1.7063E-01  8.0492E+00  6.6011E-01  8.0780E+00
                               -2.7926E-01  1.9917E+01 -4.4132E+01  2.5147E+03

           1    1.51005E+01     3.0637E-01 -2.0486E-02 -1.2634E+00  1.3002E+00
ac ID =   33377                 9.2898E-01  8.2746E+00 -3.0933E-01  8.3323E+00
                               -2.7725E-01  2.0049E+01 -4.4006E+01  2.5147E+03

           1    1.52005E+01     2.3954E-01  2.2067E-02 -1.2296E+00  1.2529E+00
ac ID =   33377                -5.9404E-01  7.3309E+00 -7.7500E-01  7.3956E+00
                               -2.7523E-01  2.0182E+01 -4.3879E+01  2.5147E+03

           1    1.53005E+01     2.2488E-01  8.6037E-03 -1.1353E+00  1.1574E+00
ac ID =   33377                -1.9931E-02  6.1527E+00 -5.6843E-01  6.1790E+00
                               -2.7319E-01  2.0316E+01 -4.3751E+01  2.5147E+03

           1    1.54005E+01     2.6754E-01 -2.3424E-03 -1.0572E+00  1.0905E+00
ac ID =   33377                 1.2254E+00  6.0085E+00  4.6849E-02  6.1323E+00
                               -2.7117E-01  2.0449E+01 -4.3622E+01  2.5147E+03

           1    1.55004E+01     2.3451E-01  3.5401E-03 -1.0284E+00  1.0548E+00
ac ID =   33377                 5.1469E-01  5.4544E+00  1.9383E-01  5.4820E+00
                               -2.6902E-01  2.0583E+01 -4.3492E+01  2.5147E+03

           1    1.56004E+01     1.7712E-01  1.6631E-02 -9.5815E-01  9.7453E-01
ac ID =   33377                -6.4744E-02  4.3543E+00  3.4843E-01  4.3687E+00
                               -2.6690E-01  2.0718E+01 -4.3362E+01  2.5147E+03

           1    1.57004E+01     2.0356E-01 -1.6664E-02 -8.6137E-01  8.8525E-01
ac ID =   33377                 1.0069E+00  4.4568E+00 -1.4458E-02  4.5691E+00
                               -2.6480E-01  2.0852E+01 -4.3230E+01  2.5147E+03

           1    1.58004E+01     2.2484E-01 -8.9861E-03 -8.2747E-01  8.5752E-01
ac ID =   33377                 9.5146E-01  4.6763E+00  3.0048E-01  4.7815E+00
                               -2.6267E-01  2.0987E+01 -4.3098E+01  2.5147E+03

           1    1.59004E+01     1.8219E-01  2.8939E-02 -7.4876E-01  7.7115E-01
ac ID =   33377                -3.5191E-01  4.1045E+00  3.4434E-01  4.1340E+00
                               -2.6044E-01  2.1121E+01 -4.2966E+01  2.5147E+03

           1    1.60004E+01     1.5533E-01  8.4274E-03 -6.7231E-01  6.9007E-01
ac ID =   33377                 3.7211E-01  3.1705E+00 -1.4803E-01  3.1957E+00
                               -2.5835E-01  2.1256E+01 -4.2832E+01  2.5147E+03

           1    1.61004E+01     1.8390E-01 -3.1421E-02 -5.7851E-01  6.0785E-01
ac ID =   33377                 1.3143E+00  4.0938E+00 -4.4362E-01  4.3224E+00
                               -2.5610E-01  2.1391E+01 -4.2699E+01  2.5147E+03

           1    1.62004E+01     1.6468E-01  2.5272E-02 -5.1922E-01  5.4530E-01
ac ID =   33377                -2.4990E-01  3.5371E+00 -3.3568E-01  3.5618E+00
                               -2.5387E-01  2.1526E+01 -4.2565E+01  2.5147E+03

           1    1.63004E+01     1.6294E-01  1.7342E-02 -5.0858E-01  5.3432E-01
ac ID =   33377                 3.4721E-01  4.1288E+00  1.0450E-01  4.1447E+00
                               -2.5170E-01  2.1661E+01 -4.2431E+01  2.5147E+03

           1    1.64004E+01     1.7440E-01 -2.3222E-02 -4.2942E-01  4.6406E-01
ac ID =   33377                 1.5813E+00  4.7914E+00  5.6572E-02  5.0459E+00
                               -2.4948E-01  2.1796E+01 -4.2296E+01  2.5147E+03

           1    1.65003E+01     2.0162E-01 -3.0098E-03 -3.8052E-01  4.3065E-01
ac ID =   33377                 7.5681E-01  5.7613E+00 -1.5566E-01  5.8129E+00
                               -2.4714E-01  2.1931E+01 -4.2162E+01  2.5147E+03

           1    1.66003E+01     1.4943E-01  1.5149E-02 -3.0534E-01  3.4028E-01
ac ID =   33377                -4.9506E-02  5.4351E+00 -9.3695E-02  5.4361E+00
                               -2.4486E-01  2.2066E+01 -4.2027E+01  2.5147E+03

           1    1.67003E+01     1.9331E-01 -9.2274E-03 -2.6146E-01  3.2529E-01
ac ID =   33377                 1.4213E+00  5.8857E+00  3.0987E-01  6.0628E+00
                               -2.4261E-01  2.2201E+01 -4.1893E+01  2.5147E+03

           1    1.68003E+01     1.7120E-01 -3.1925E-02 -2.2350E-01  2.8334E-01
ac ID =   33377                 1.3650E+00  5.9317E+00  1.5447E-01  6.0887E+00
                               -2.4006E-01  2.2336E+01 -4.1759E+01  2.5147E+03

           1    1.69003E+01     1.6424E-01  2.1100E-02 -1.2210E-01  2.0574E-01
ac ID =   33377                 2.9541E-01  5.9730E+00 -3.6244E-01  5.9912E+00
                               -2.3767E-01  2.2471E+01 -4.1625E+01  2.5147E+03

           1    1.70003E+01     1.3838E-01  1.0329E-02 -5.1862E-02  1.4814E-01
ac ID =   33377                 5.2323E-01  5.3970E+00 -2.8471E-01  5.4298E+00
                               -2.3530E-01  2.2606E+01 -4.1492E+01  2.5147E+03

           1    1.71003E+01     1.9449E-01 -3.1249E-02 -3.0217E-02  1.9929E-01
ac ID =   33377                 1.2311E+00  6.3280E+00  4.5756E-02  6.4468E+00
                               -2.3265E-01  2.2741E+01 -4.1359E+01  2.5147E+03

           1    1.72003E+01     1.7700E-01 -5.5553E-03  1.8479E-02  1.7804E-01
ac ID =   33377                 6.2075E-01  6.4555E+00  2.7755E-02  6.4854E+00
                               -2.3011E-01  2.2876E+01 -4.1227E+01  2.5147E+03

           1    1.73003E+01     1.3581E-01  2.4426E-02  9.8943E-02  1.6980E-01
ac ID =   33377                 4.2627E-01  5.5936E+00  1.0073E-01  5.6107E+00
                               -2.2763E-01  2.3011E+01 -4.1096E+01  2.5147E+03

           1    1.74003E+01     1.6419E-01 -1.5286E-02  1.4517E-01  2.1970E-01
ac ID =   33377                 1.2116E+00  5.8375E+00  5.7152E-01  5.9893E+00
                               -2.2497E-01  2.3145E+01 -4.0965E+01  2.5147E+03

           1    1.75002E+01     1.6597E-01 -2.7915E-02  1.8854E-01  2.5273E-01
ac ID =   33377                 1.1140E+00  5.5156E+00  1.5149E-01  5.6290E+00
                               -2.2225E-01  2.3280E+01 -4.0836E+01  2.5147E+03

           1    1.76002E+01     1.3165E-01  2.7746E-02  2.4724E-01  2.8148E-01
ac ID =   33377                -5.4116E-03  4.7445E+00  1.1413E-01  4.7459E+00
                               -2.1966E-01  2.3415E+01 -4.0707E+01  2.5147E+03

           1    1.77002E+01     1.1285E-01 -1.7152E-02  2.9796E-01  3.1908E-01
ac ID =   33377                 1.1255E+00  4.1875E+00 -1.1074E-01  4.3375E+00
                               -2.1694E-01  2.3550E+01 -4.0580E+01  2.5147E+03

           1    1.78002E+01     1.4047E-01 -6.8602E-04  3.5117E-01  3.7822E-01
ac ID =   33377                 5.5705E-01  4.5309E+00  2.2389E-01  4.5705E+00
                               -2.1420E-01  2.3685E+01 -4.0454E+01  2.5147E+03

           1    1.79002E+01     1.3884E-01 -5.5605E-03  3.8990E-01  4.1392E-01
ac ID =   33377                 4.2542E-01  4.7525E+00  1.2731E-01  4.7732E+00
                               -2.1145E-01  2.3821E+01 -4.0330E+01  2.5147E+03

           1    1.80002E+01     7.5994E-02  1.3245E-02  4.3894E-01  4.4567E-01
ac ID =   33377                 4.7397E-02  2.9179E+00  2.5428E-01  2.9294E+00
                               -2.0877E-01  2.3957E+01 -4.0207E+01  2.5147E+03

           1    1.81002E+01     1.2746E-01  1.2382E-03  4.7093E-01  4.8788E-01
ac ID =   33377                 3.0610E-01  3.5032E+00 -2.4801E-01  3.5253E+00
                               -2.0600E-01  2.4092E+01 -4.0085E+01  2.5147E+03

           1    1.82002E+01     1.1038E-01 -2.5709E-02  5.1921E-01  5.3144E-01
ac ID =   33377                 8.6144E-01  3.1556E+00 -5.3347E-01  3.3143E+00
                               -2.0323E-01  2.4228E+01 -3.9965E+01  2.5147E+03

           1    1.83002E+01     7.0703E-02  2.6009E-02  5.6509E-01  5.7009E-01
ac ID =   33377                -2.1566E-01  2.1052E+00  1.4624E-01  2.1213E+00
                               -2.0057E-01  2.4365E+01 -3.9846E+01  2.5147E+03

           1    1.84002E+01     7.5260E-02 -4.3377E-03  5.8548E-01  5.9031E-01
ac ID =   33377                 3.3912E-01  2.0921E+00  3.6874E-01  2.1513E+00
                               -1.9783E-01  2.4501E+01 -3.9729E+01  2.5147E+03

           1    1.85001E+01     1.0747E-01 -1.1124E-02  5.8639E-01  5.9626E-01
ac ID =   33377                 5.4740E-01  2.4435E+00  1.2056E-01  2.5070E+00
                               -1.9509E-01  2.4638E+01 -3.9614E+01  2.5147E+03

           1    1.86001E+01     7.1611E-02  3.5955E-03  6.4541E-01  6.4938E-01
ac ID =   33377                -1.0815E-02  1.6033E+00 -5.6394E-01  1.6996E+00
                               -1.9239E-01  2.4775E+01 -3.9501E+01  2.5147E+03

           1    1.87001E+01     5.3992E-02  8.0026E-03  6.9288E-01  6.9502E-01
ac ID =   33377                -5.7820E-02  6.6467E-01 -9.6684E-01  1.1747E+00
                               -1.8976E-01  2.4913E+01 -3.9389E+01  2.5147E+03

           1    1.88001E+01     6.7113E-02  5.7622E-03  6.8846E-01  6.9175E-01
ac ID =   33377                -2.6316E-01  1.0278E+00  1.0432E-01  1.0661E+00
                               -1.8708E-01  2.5051E+01 -3.9279E+01  2.5147E+03

           1    1.89001E+01     9.4528E-02 -1.5395E-02  7.1433E-01  7.2072E-01
ac ID =   33377                 5.4908E-01  9.1363E-01  3.0875E-01  1.1097E+00
                               -1.8447E-01  2.5189E+01 -3.9171E+01  2.5147E+03

           1    1.90001E+01     3.9558E-02  2.5495E-02  7.7395E-01  7.7538E-01
ac ID =   33377                -9.7208E-01 -1.8399E-01  5.7356E-01  1.1436E+00
                               -1.8189E-01  2.5328E+01 -3.9065E+01  2.5147E+03

           1    1.91001E+01     6.1418E-02  1.2114E-02  8.0172E-01  8.0416E-01
ac ID =   33377                -1.2976E-01 -9.8693E-02 -1.7977E-01  2.4269E-01
                               -1.7940E-01  2.5467E+01 -3.8961E+01  2.5147E+03

           1    1.92001E+01     7.3406E-02 -2.4414E-02  8.0575E-01  8.0945E-01
ac ID =   33377                 2.8667E-01 -4.7884E-02 -6.6891E-01  7.2932E-01
                               -1.7684E-01  2.5606E+01 -3.8859E+01  2.5147E+03

