 LSTC 50th% Full_FE H-III Dummy (Beta Version, February 17, 2019)        
                    ls-dyna smp s R16 R16.0_619_d222963 date 03/18/2025

{BEGIN LEGEND}
 Entity #        Title
    22626                                                                                     
{END LEGEND}




 n o d a l   p r i n t   o u t   f o r   t i m e  s t e p       1                              ( at time 0.0000000E+00 )

 nodal point  x-disp     y-disp      z-disp      x-vel       y-vel       z-vel      x-accl      y-accl      z-accl      x-coor      y-coor      z-coor
    22626  0.00000E+00 0.00000E+00 0.00000E+00 0.00000E+00 0.00000E+00-3.12000E+00 0.00000E+00 0.00000E+00 0.00000E+00 4.79642E+01-2.20298E+01 7.33850E+00



 n o d a l   p r i n t   o u t   f o r   t i m e  s t e p       1                              ( at time 0.0000000E+00 )

 nodal point  x-rot      y-rot       z-rot       x-rot vel   y-rot vel   z-rot vel   x-rot acc   y-rot acc   z-rot acc
    22626  0.00000E+00 0.00000E+00 0.00000E+00 0.00000E+00 0.00000E+00 0.00000E+00 0.00000E+00 0.00000E+00 0.00000E+00



 n o d a l   p r i n t   o u t   f o r   t i m e  s t e p     201                              ( at time 9.9989993E-02 )

 nodal point  x-disp     y-disp      z-disp      x-vel       y-vel       z-vel      x-accl      y-accl      z-accl      x-coor      y-coor      z-coor
    22626  8.34321E-07-4.04478E-06-3.12016E-01 4.76656E-05-4.96450E-04-3.12074E+00 4.76704E-04-4.96500E-03-7.42510E-03 4.79642E+01-2.20298E+01 7.02648E+00



 n o d a l   p r i n t   o u t   f o r   t i m e  s t e p     201                              ( at time 9.9989993E-02 )

 nodal point  x-rot      y-rot       z-rot       x-rot vel   y-rot vel   z-rot vel   x-rot acc   y-rot acc   z-rot acc
    22626  9.60213E-09 3.04100E-08 5.27024E-08 1.30669E-06 2.72321E-06 5.21249E-06 1.30682E-05 2.72348E-05 5.21301E-05



 n o d a l   p r i n t   o u t   f o r   t i m e  s t e p     401                              ( at time 1.9997999E-01 )

 nodal point  x-disp     y-disp      z-disp      x-vel       y-vel       z-vel      x-accl      y-accl      z-accl      x-coor      y-coor      z-coor
    22626 -5.12833E-05-5.21570E-04-6.23853E-01-1.09639E-03-1.11148E-02-3.11558E+00-1.14417E-02-1.06194E-01 5.16180E-02 4.79641E+01-2.20303E+01 6.71465E+00



 n o d a l   p r i n t   o u t   f o r   t i m e  s t e p     401                              ( at time 1.9997999E-01 )

 nodal point  x-rot      y-rot       z-rot       x-rot vel   y-rot vel   z-rot vel   x-rot acc   y-rot acc   z-rot acc
    22626  4.60427E-07 1.32977E-06 2.50231E-06 2.67173E-06 1.90662E-05 3.49884E-05 1.36517E-05 1.63447E-04 2.97789E-04



 n o d a l   p r i n t   o u t   f o r   t i m e  s t e p     601                              ( at time 2.9996998E-01 )

 nodal point  x-disp     y-disp      z-disp      x-vel       y-vel       z-vel      x-accl      y-accl      z-accl      x-coor      y-coor      z-coor
    22626 -2.45669E-05-1.97631E-03-9.35238E-01 1.65960E-03-1.60438E-02-3.11415E+00 2.75627E-02-4.92943E-02 1.43495E-02 4.79642E+01-2.20318E+01 6.40326E+00



 n o d a l   p r i n t   o u t   f o r   t i m e  s t e p     601                              ( at time 2.9996998E-01 )

 nodal point  x-rot      y-rot       z-rot       x-rot vel   y-rot vel   z-rot vel   x-rot acc   y-rot acc   z-rot acc
    22626  6.75265E-07 2.41111E-06 4.82746E-06 8.21527E-06 5.31972E-06 1.46676E-05 5.54410E-05-1.37479E-04-2.03228E-04



 n o d a l   p r i n t   o u t   f o r   t i m e  s t e p     801                              ( at time 3.9995997E-01 )

 nodal point  x-disp     y-disp      z-disp      x-vel       y-vel       z-vel      x-accl      y-accl      z-accl      x-coor      y-coor      z-coor
    22626  5.94837E-05-3.57406E-03-1.24663E+00 1.96048E-04-1.73910E-02-3.11353E+00-1.46370E-02-1.34733E-02 6.14943E-03 4.79642E+01-2.20334E+01 6.09187E+00



 n o d a l   p r i n t   o u t   f o r   t i m e  s t e p     801                              ( at time 3.9995997E-01 )

 nodal point  x-rot      y-rot       z-rot       x-rot vel   y-rot vel   z-rot vel   x-rot acc   y-rot acc   z-rot acc
    22626  1.58191E-06 3.68035E-06 6.68058E-06 6.25434E-06 2.43223E-05 3.83314E-05-1.96113E-05 1.90045E-04 2.36662E-04



 n o d a l   p r i n t   o u t   f o r   t i m e  s t e p    1001                              ( at time 4.9994997E-01 )

 nodal point  x-disp     y-disp      z-disp      x-vel       y-vel       z-vel      x-accl      y-accl      z-accl      x-coor      y-coor      z-coor
    22626  7.27378E-05-5.63147E-03-1.55782E+00 8.89297E-04-2.38449E-02-3.11085E+00 6.93319E-03-6.45462E-02 2.67890E-02 4.79643E+01-2.20354E+01 5.78068E+00



 n o d a l   p r i n t   o u t   f o r   t i m e  s t e p    1001                              ( at time 4.9994997E-01 )

 nodal point  x-rot      y-rot       z-rot       x-rot vel   y-rot vel   z-rot vel   x-rot acc   y-rot acc   z-rot acc
    22626  1.49421E-06 6.64847E-06 1.18368E-05-4.82018E-06 4.37958E-05 7.19756E-05-1.10756E-04 1.94754E-04 3.36476E-04



 n o d a l   p r i n t   o u t   f o r   t i m e  s t e p    1201                              ( at time 5.9993996E-01 )

 nodal point  x-disp     y-disp      z-disp      x-vel       y-vel       z-vel      x-accl      y-accl      z-accl      x-coor      y-coor      z-coor
    22626  5.29096E-05-8.13742E-03-1.86888E+00-5.65212E-04-2.61266E-02-3.11084E+00-1.45465E-02-2.28194E-02 1.57372E-04 4.79642E+01-2.20379E+01 5.46962E+00



 n o d a l   p r i n t   o u t   f o r   t i m e  s t e p    1201                              ( at time 5.9993996E-01 )

 nodal point  x-rot      y-rot       z-rot       x-rot vel   y-rot vel   z-rot vel   x-rot acc   y-rot acc   z-rot acc
    22626  1.26528E-06 9.87428E-06 1.77366E-05-2.11351E-06 2.63507E-05 5.29509E-05 2.70694E-05-1.74468E-04-1.90266E-04



 n o d a l   p r i n t   o u t   f o r   t i m e  s t e p    1401                              ( at time 6.9992995E-01 )

 nodal point  x-disp     y-disp      z-disp      x-vel       y-vel       z-vel      x-accl      y-accl      z-accl      x-coor      y-coor      z-coor
    22626  1.97106E-05-1.10207E-02-2.17976E+00 7.18597E-04-3.22430E-02-3.10769E+00 1.28394E-02-6.11701E-02 3.14291E-02 4.79642E+01-2.20408E+01 5.15874E+00



 n o d a l   p r i n t   o u t   f o r   t i m e  s t e p    1401                              ( at time 6.9992995E-01 )

 nodal point  x-rot      y-rot       z-rot       x-rot vel   y-rot vel   z-rot vel   x-rot acc   y-rot acc   z-rot acc
    22626  1.10220E-06 1.30697E-05 2.27047E-05-2.46173E-06 3.79114E-05 5.93234E-05-3.48255E-06 1.15618E-04 6.37313E-05



 n o d a l   p r i n t   o u t   f o r   t i m e  s t e p    1601                              ( at time 7.9991994E-01 )

 nodal point  x-disp     y-disp      z-disp      x-vel       y-vel       z-vel      x-accl      y-accl      z-accl      x-coor      y-coor      z-coor
    22626  1.33073E-04-1.45710E-02-2.49038E+00 1.36785E-03-3.68150E-02-3.10600E+00 6.49317E-03-4.57246E-02 1.69223E-02 4.79643E+01-2.20444E+01 4.84812E+00



 n o d a l   p r i n t   o u t   f o r   t i m e  s t e p    1601                              ( at time 7.9991994E-01 )

 nodal point  x-rot      y-rot       z-rot       x-rot vel   y-rot vel   z-rot vel   x-rot acc   y-rot acc   z-rot acc
    22626  1.00671E-06 1.72060E-05 2.96645E-05 2.98462E-06 4.87070E-05 7.62635E-05 5.44689E-05 1.07967E-04 1.69418E-04



 n o d a l   p r i n t   o u t   f o r   t i m e  s t e p    1801                              ( at time 8.9990994E-01 )

 nodal point  x-disp     y-disp      z-disp      x-vel       y-vel       z-vel      x-accl      y-accl      z-accl      x-coor      y-coor      z-coor
    22626  2.07337E-04-1.82141E-02-2.80104E+00-5.08295E-04-3.64329E-02-3.10742E+00-1.87633E-02 3.82182E-03-1.41706E-02 4.79644E+01-2.20480E+01 4.53746E+00



 n o d a l   p r i n t   o u t   f o r   t i m e  s t e p    1801                              ( at time 8.9990994E-01 )

 nodal point  x-rot      y-rot       z-rot       x-rot vel   y-rot vel   z-rot vel   x-rot acc   y-rot acc   z-rot acc
    22626  1.02370E-06 2.13200E-05 3.66561E-05-1.88927E-06 3.79544E-05 6.82690E-05-4.87437E-05-1.07537E-04-7.99538E-05



 n o d a l   p r i n t   o u t   f o r   t i m e  s t e p    2001                              ( at time 9.9989993E-01 )

 nodal point  x-disp     y-disp      z-disp      x-vel       y-vel       z-vel      x-accl      y-accl      z-accl      x-coor      y-coor      z-coor
    22626  1.09778E-04-2.19276E-02-3.11175E+00-8.15680E-04-3.83998E-02-3.10755E+00-3.07417E-03-1.96711E-02-1.34482E-03 4.79643E+01-2.20517E+01 4.22675E+00



 n o d a l   p r i n t   o u t   f o r   t i m e  s t e p    2001                              ( at time 9.9989993E-01 )

 nodal point  x-rot      y-rot       z-rot       x-rot vel   y-rot vel   z-rot vel   x-rot acc   y-rot acc   z-rot acc
    22626  8.55629E-07 2.55338E-05 4.38498E-05-8.81723E-07 4.62246E-05 8.59617E-05 1.00765E-05 8.27097E-05 1.76945E-04



 n o d a l   p r i n t   o u t   f o r   t i m e  s t e p    2201                              ( at time 1.0998899E+00 )

 nodal point  x-disp     y-disp      z-disp      x-vel       y-vel       z-vel      x-accl      y-accl      z-accl      x-coor      y-coor      z-coor
    22626  9.18961E-05-2.58761E-02-3.42246E+00-2.20135E-04-4.02583E-02-3.10712E+00 5.95605E-03-1.85871E-02 4.33727E-03 4.79643E+01-2.20557E+01 3.91605E+00



 n o d a l   p r i n t   o u t   f o r   t i m e  s t e p    2201                              ( at time 1.0998899E+00 )

 nodal point  x-rot      y-rot       z-rot       x-rot vel   y-rot vel   z-rot vel   x-rot acc   y-rot acc   z-rot acc
    22626  9.32957E-07 3.03122E-05 5.24801E-05 5.27551E-06 4.64507E-05 7.50649E-05 6.15785E-05 2.26141E-06-1.08979E-04



 n o d a l   p r i n t   o u t   f o r   t i m e  s t e p    2401                              ( at time 1.1998799E+00 )

 nodal point  x-disp     y-disp      z-disp      x-vel       y-vel       z-vel      x-accl      y-accl      z-accl      x-coor      y-coor      z-coor
    22626  1.34256E-04-2.98901E-02-3.73320E+00 7.32002E-04-3.98024E-02-3.10849E+00 9.52232E-03 4.55950E-03-1.37486E-02 4.79643E+01-2.20597E+01 3.60531E+00



 n o d a l   p r i n t   o u t   f o r   t i m e  s t e p    2401                              ( at time 1.1998799E+00 )

 nodal point  x-rot      y-rot       z-rot       x-rot vel   y-rot vel   z-rot vel   x-rot acc   y-rot acc   z-rot acc
    22626  1.33543E-06 3.44646E-05 5.93265E-05 4.97923E-06 3.99556E-05 6.55683E-05-2.96308E-06-6.49578E-05-9.49759E-05



 n o d a l   p r i n t   o u t   f o r   t i m e  s t e p    2601                              ( at time 1.2998699E+00 )

 nodal point  x-disp     y-disp      z-disp      x-vel       y-vel       z-vel      x-accl      y-accl      z-accl      x-coor      y-coor      z-coor
    22626  1.46159E-04-3.37303E-02-4.04413E+00-4.21624E-04-3.65916E-02-3.11133E+00-1.15374E-02 3.21114E-02-2.83341E-02 4.79643E+01-2.20635E+01 3.29437E+00



 n o d a l   p r i n t   o u t   f o r   t i m e  s t e p    2601                              ( at time 1.2998699E+00 )

 nodal point  x-rot      y-rot       z-rot       x-rot vel   y-rot vel   z-rot vel   x-rot acc   y-rot acc   z-rot acc
    22626  1.63849E-06 3.85435E-05 6.61319E-05-2.49704E-06 4.54448E-05 7.98479E-05-7.47702E-05 5.48978E-05 1.42810E-04



 n o d a l   p r i n t   o u t   f o r   t i m e  s t e p    2801                              ( at time 1.3998599E+00 )

 nodal point  x-disp     y-disp      z-disp      x-vel       y-vel       z-vel      x-accl      y-accl      z-accl      x-coor      y-coor      z-coor
    22626  3.21734E-05-3.71241E-02-4.35543E+00-1.30584E-03-3.14346E-02-3.11511E+00-8.84305E-03 5.15750E-02-3.77812E-02 4.79642E+01-2.20669E+01 2.98307E+00



 n o d a l   p r i n t   o u t   f o r   t i m e  s t e p    2801                              ( at time 1.3998599E+00 )

 nodal point  x-rot      y-rot       z-rot       x-rot vel   y-rot vel   z-rot vel   x-rot acc   y-rot acc   z-rot acc
    22626  1.20352E-06 4.29491E-05 7.39881E-05-4.54744E-06 4.45255E-05 7.35074E-05-2.05060E-05-9.19420E-06-6.34112E-05



 n o d a l   p r i n t   o u t   f o r   t i m e  s t e p    3001                              ( at time 1.4998499E+00 )

 nodal point  x-disp     y-disp      z-disp      x-vel       y-vel       z-vel      x-accl      y-accl      z-accl      x-coor      y-coor      z-coor
    22626 -7.76222E-05-4.01688E-02-4.66702E+00-4.96749E-04-2.97688E-02-3.11713E+00 8.09173E-03 1.66602E-02-2.02509E-02 4.79641E+01-2.20700E+01 2.67148E+00



 n o d a l   p r i n t   o u t   f o r   t i m e  s t e p    3001                              ( at time 1.4998499E+00 )

 nodal point  x-rot      y-rot       z-rot       x-rot vel   y-rot vel   z-rot vel   x-rot acc   y-rot acc   z-rot acc
    22626  8.26636E-07 4.68515E-05 8.05188E-05-1.60904E-06 3.19232E-05 5.70102E-05 2.93869E-05-1.26035E-04-1.64988E-04



 n o d a l   p r i n t   o u t   f o r   t i m e  s t e p    3201                              ( at time 1.5998399E+00 )

 nodal point  x-disp     y-disp      z-disp      x-vel       y-vel       z-vel      x-accl      y-accl      z-accl      x-coor      y-coor      z-coor
    22626 -1.24382E-04-4.30593E-02-4.97879E+00-6.94519E-04-2.75118E-02-3.11940E+00-1.97790E-03 2.25718E-02-2.27045E-02 4.79641E+01-2.20728E+01 2.35971E+00



 n o d a l   p r i n t   o u t   f o r   t i m e  s t e p    3201                              ( at time 1.5998399E+00 )

 nodal point  x-rot      y-rot       z-rot       x-rot vel   y-rot vel   z-rot vel   x-rot acc   y-rot acc   z-rot acc
    22626  5.14278E-07 4.99110E-05 8.53928E-05-1.52503E-06 3.26791E-05 4.80582E-05 8.40157E-07 7.55946E-06-8.95298E-05



 n o d a l   p r i n t   o u t   f o r   t i m e  s t e p    3401                              ( at time 1.6998299E+00 )

 nodal point  x-disp     y-disp      z-disp      x-vel       y-vel       z-vel      x-accl      y-accl      z-accl      x-coor      y-coor      z-coor
    22626 -2.11107E-04-4.55736E-02-5.29089E+00-1.12815E-03-2.24407E-02-3.12325E+00-4.33673E-03 5.07167E-02-3.85061E-02 4.79640E+01-2.20754E+01 2.04762E+00



 n o d a l   p r i n t   o u t   f o r   t i m e  s t e p    3401                              ( at time 1.6998299E+00 )

 nodal point  x-rot      y-rot       z-rot       x-rot vel   y-rot vel   z-rot vel   x-rot acc   y-rot acc   z-rot acc
    22626  2.99279E-07 5.29939E-05 9.04263E-05-3.80635E-06 2.98380E-05 4.78404E-05-2.28155E-05-2.84132E-05-2.17762E-06



 n o d a l   p r i n t   o u t   f o r   t i m e  s t e p    3601                              ( at time 1.7998199E+00 )

 nodal point  x-disp     y-disp      z-disp      x-vel       y-vel       z-vel      x-accl      y-accl      z-accl      x-coor      y-coor      z-coor
    22626 -3.12613E-04-4.75644E-02-5.60339E+00-1.32582E-03-1.77152E-02-3.12732E+00-1.97690E-03 4.72598E-02-4.06926E-02 4.79639E+01-2.20774E+01 1.73511E+00



 n o d a l   p r i n t   o u t   f o r   t i m e  s t e p    3601                              ( at time 1.7998199E+00 )

 nodal point  x-rot      y-rot       z-rot       x-rot vel   y-rot vel   z-rot vel   x-rot acc   y-rot acc   z-rot acc
    22626  1.52969E-07 5.57821E-05 9.51856E-05-3.31938E-07 2.14472E-05 4.21145E-05 3.47476E-05-8.39165E-05-5.72652E-05



 n o d a l   p r i n t   o u t   f o r   t i m e  s t e p    3801                              ( at time 1.8998099E+00 )

 nodal point  x-disp     y-disp      z-disp      x-vel       y-vel       z-vel      x-accl      y-accl      z-accl      x-coor      y-coor      z-coor
    22626 -5.00248E-04-4.92021E-02-5.91621E+00-2.16367E-03-1.51639E-02-3.12982E+00-8.37938E-03 2.55154E-02-2.49745E-02 4.79637E+01-2.20790E+01 1.42229E+00



 n o d a l   p r i n t   o u t   f o r   t i m e  s t e p    3801                              ( at time 1.8998099E+00 )

 nodal point  x-rot      y-rot       z-rot       x-rot vel   y-rot vel   z-rot vel   x-rot acc   y-rot acc   z-rot acc
    22626 -9.22782E-08 5.76804E-05 9.86014E-05 1.51525E-06 1.55382E-05 2.74354E-05 1.84738E-05-5.90959E-05-1.46806E-04



 n o d a l   p r i n t   o u t   f o r   t i m e  s t e p    4001                              ( at time 1.9997999E+00 )

 nodal point  x-disp     y-disp      z-disp      x-vel       y-vel       z-vel      x-accl      y-accl      z-accl      x-coor      y-coor      z-coor
    22626 -6.73721E-04-5.05924E-02-6.22929E+00-1.64768E-03-1.28133E-02-3.13210E+00 5.16042E-03 2.35082E-02-2.28619E-02 4.79635E+01-2.20804E+01 1.10921E+00



 n o d a l   p r i n t   o u t   f o r   t i m e  s t e p    4001                              ( at time 1.9997999E+00 )

 nodal point  x-rot      y-rot       z-rot       x-rot vel   y-rot vel   z-rot vel   x-rot acc   y-rot acc   z-rot acc
    22626  1.12338E-07 5.90166E-05 1.00911E-04 3.38976E-06 1.32695E-05 2.01882E-05 1.87470E-05-2.26899E-05-7.24787E-05



 n o d a l   p r i n t   o u t   f o r   t i m e  s t e p    4201                              ( at time 2.0997899E+00 )

 nodal point  x-disp     y-disp      z-disp      x-vel       y-vel       z-vel      x-accl      y-accl      z-accl      x-coor      y-coor      z-coor
    22626 -8.42791E-04-5.16835E-02-6.54262E+00-1.86156E-03-9.15395E-03-3.13518E+00-2.13902E-03 3.65969E-02-3.07734E-02 4.79633E+01-2.20815E+01 7.95877E-01



 n o d a l   p r i n t   o u t   f o r   t i m e  s t e p    4201                              ( at time 2.0997899E+00 )

 nodal point  x-rot      y-rot       z-rot       x-rot vel   y-rot vel   z-rot vel   x-rot acc   y-rot acc   z-rot acc
    22626  3.98205E-07 5.96600E-05 1.02002E-04-1.33374E-06 3.41215E-06 1.74055E-06-4.72397E-05-9.85832E-05-1.84495E-04



 n o d a l   p r i n t   o u t   f o r   t i m e  s t e p    4401                              ( at time 2.1997798E+00 )

 nodal point  x-disp     y-disp      z-disp      x-vel       y-vel       z-vel      x-accl      y-accl      z-accl      x-coor      y-coor      z-coor
    22626 -1.08486E-03-5.23701E-02-6.85629E+00-2.77253E-03-4.41296E-03-3.13895E+00-9.11059E-03 4.74147E-02-3.76763E-02 4.79631E+01-2.20822E+01 4.82212E-01



 n o d a l   p r i n t   o u t   f o r   t i m e  s t e p    4401                              ( at time 2.1997798E+00 )

 nodal point  x-rot      y-rot       z-rot       x-rot vel   y-rot vel   z-rot vel   x-rot acc   y-rot acc   z-rot acc
    22626  2.19929E-07 5.96526E-05 1.01933E-04-1.17201E-06-2.11675E-06-3.08791E-06 1.61738E-06-5.52945E-05-4.82895E-05



 n o d a l   p r i n t   o u t   f o r   t i m e  s t e p    4601                              ( at time 2.2997698E+00 )

 nodal point  x-disp     y-disp      z-disp      x-vel       y-vel       z-vel      x-accl      y-accl      z-accl      x-coor      y-coor      z-coor
    22626 -1.39388E-03-5.25652E-02-7.17034E+00-3.50648E-03-8.33613E-05-3.14228E+00-7.34024E-03 4.33003E-02-3.33342E-02 4.79628E+01-2.20824E+01 1.68163E-01



 n o d a l   p r i n t   o u t   f o r   t i m e  s t e p    4601                              ( at time 2.2997698E+00 )

 nodal point  x-rot      y-rot       z-rot       x-rot vel   y-rot vel   z-rot vel   x-rot acc   y-rot acc   z-rot acc
    22626 -1.70057E-07 5.93393E-05 1.01561E-04-4.55025E-06-9.80034E-06-1.29069E-05-3.37857E-05-7.68435E-05-9.81998E-05



 n o d a l   p r i n t   o u t   f o r   t i m e  s t e p    4801                              ( at time 2.3997598E+00 )

 nodal point  x-disp     y-disp      z-disp      x-vel       y-vel       z-vel      x-accl      y-accl      z-accl      x-coor      y-coor      z-coor
    22626 -1.76279E-03-5.24782E-02-7.48464E+00-3.60909E-03 1.86457E-03-3.14440E+00-1.02616E-03 1.94813E-02-2.11785E-02 4.79624E+01-2.20823E+01-1.46135E-01



 n o d a l   p r i n t   o u t   f o r   t i m e  s t e p    4801                              ( at time 2.3997598E+00 )

 nodal point  x-rot      y-rot       z-rot       x-rot vel   y-rot vel   z-rot vel   x-rot acc   y-rot acc   z-rot acc
    22626 -7.18509E-07 5.80747E-05 9.90753E-05-5.99590E-06-1.60449E-05-3.37293E-05-1.44580E-05-6.24518E-05-2.08244E-04



 n o d a l   p r i n t   o u t   f o r   t i m e  s t e p    5001                              ( at time 2.4997498E+00 )

 nodal point  x-disp     y-disp      z-disp      x-vel       y-vel       z-vel      x-accl      y-accl      z-accl      x-coor      y-coor      z-coor
    22626 -2.15580E-03-5.21707E-02-7.79916E+00-4.24835E-03 4.96684E-03-3.14710E+00-6.39324E-03 3.10257E-02-2.70489E-02 4.79620E+01-2.20820E+01-4.60662E-01



 n o d a l   p r i n t   o u t   f o r   t i m e  s t e p    5001                              ( at time 2.4997498E+00 )

 nodal point  x-rot      y-rot       z-rot       x-rot vel   y-rot vel   z-rot vel   x-rot acc   y-rot acc   z-rot acc
    22626 -1.16746E-06 5.58412E-05 9.51088E-05-4.18077E-06-2.63732E-05-4.86370E-05 1.81531E-05-1.03293E-04-1.49092E-04



 n o d a l   p r i n t   o u t   f o r   t i m e  s t e p    5201                              ( at time 2.5997398E+00 )

 nodal point  x-disp     y-disp      z-disp      x-vel       y-vel       z-vel      x-accl      y-accl      z-accl      x-coor      y-coor      z-coor
    22626 -2.63029E-03-5.14563E-02-8.11403E+00-5.26723E-03 9.27375E-03-3.15071E+00-1.01899E-02 4.30734E-02-3.60335E-02 4.79615E+01-2.20812E+01-7.75527E-01



 n o d a l   p r i n t   o u t   f o r   t i m e  s t e p    5201                              ( at time 2.5997398E+00 )

 nodal point  x-rot      y-rot       z-rot       x-rot vel   y-rot vel   z-rot vel   x-rot acc   y-rot acc   z-rot acc
    22626 -1.53925E-06 5.27359E-05 8.96682E-05-4.69700E-06-3.59092E-05-6.23300E-05-5.16282E-06-9.53693E-05-1.36943E-04



 n o d a l   p r i n t   o u t   f o r   t i m e  s t e p    5401                              ( at time 2.6997298E+00 )

 nodal point  x-disp     y-disp      z-disp      x-vel       y-vel       z-vel      x-accl      y-accl      z-accl      x-coor      y-coor      z-coor
    22626 -3.19975E-03-5.03214E-02-8.42925E+00-6.43070E-03 1.29802E-02-3.15422E+00-1.16358E-02 3.70677E-02-3.51034E-02 4.79610E+01-2.20801E+01-1.09074E+00



 n o d a l   p r i n t   o u t   f o r   t i m e  s t e p    5401                              ( at time 2.6997298E+00 )

 nodal point  x-rot      y-rot       z-rot       x-rot vel   y-rot vel   z-rot vel   x-rot acc   y-rot acc   z-rot acc
    22626 -1.83747E-06 4.89880E-05 8.31664E-05-1.80778E-06-4.12750E-05-6.67555E-05 2.88951E-05-5.36642E-05-4.42594E-05



 n o d a l   p r i n t   o u t   f o r   t i m e  s t e p    5601                              ( at time 2.7997198E+00 )

 nodal point  x-disp     y-disp      z-disp      x-vel       y-vel       z-vel      x-accl      y-accl      z-accl      x-coor      y-coor      z-coor
    22626 -3.91342E-03-4.88968E-02-8.74475E+00-7.68818E-03 1.51524E-02-3.15635E+00-1.25760E-02 2.17250E-02-2.13025E-02 4.79603E+01-2.20787E+01-1.40625E+00



 n o d a l   p r i n t   o u t   f o r   t i m e  s t e p    5601                              ( at time 2.7997198E+00 )

 nodal point  x-rot      y-rot       z-rot       x-rot vel   y-rot vel   z-rot vel   x-rot acc   y-rot acc   z-rot acc
    22626 -1.97296E-06 4.40944E-05 7.50608E-05 3.23951E-07-5.72513E-05-9.84437E-05 2.13195E-05-1.59779E-04-3.16915E-04



 n o d a l   p r i n t   o u t   f o r   t i m e  s t e p    5801                              ( at time 2.8997098E+00 )

 nodal point  x-disp     y-disp      z-disp      x-vel       y-vel       z-vel      x-accl      y-accl      z-accl      x-coor      y-coor      z-coor
    22626 -4.68516E-03-4.73282E-02-9.06045E+00-7.82298E-03 1.61420E-02-3.15805E+00-1.34820E-03 9.89705E-03-1.70057E-02 4.79595E+01-2.20771E+01-1.72194E+00



 n o d a l   p r i n t   o u t   f o r   t i m e  s t e p    5801                              ( at time 2.8997098E+00 )

 nodal point  x-rot      y-rot       z-rot       x-rot vel   y-rot vel   z-rot vel   x-rot acc   y-rot acc   z-rot acc
    22626 -1.77539E-06 3.76530E-05 6.41513E-05 2.44471E-06-6.66326E-05-1.15429E-04 2.12098E-05-9.38230E-05-1.69871E-04



 n o d a l   p r i n t   o u t   f o r   t i m e  s t e p    6001                              ( at time 2.9996998E+00 )

 nodal point  x-disp     y-disp      z-disp      x-vel       y-vel       z-vel      x-accl      y-accl      z-accl      x-coor      y-coor      z-coor
    22626 -5.50557E-03-4.55962E-02-9.37632E+00-8.82059E-03 1.86404E-02-3.16041E+00-9.97703E-03 2.49858E-02-2.36749E-02 4.79587E+01-2.20754E+01-2.03782E+00



 n o d a l   p r i n t   o u t   f o r   t i m e  s t e p    6001                              ( at time 2.9996998E+00 )

 nodal point  x-rot      y-rot       z-rot       x-rot vel   y-rot vel   z-rot vel   x-rot acc   y-rot acc   z-rot acc
    22626 -1.54440E-06 3.07955E-05 5.25916E-05 5.05627E-07-7.08422E-05-1.20934E-04-1.93928E-05-4.20996E-05-5.50570E-05



 n o d a l   p r i n t   o u t   f o r   t i m e  s t e p    6201                              ( at time 3.0996898E+00 )

 nodal point  x-disp     y-disp      z-disp      x-vel       y-vel       z-vel      x-accl      y-accl      z-accl      x-coor      y-coor      z-coor
    22626 -6.47080E-03-4.36151E-02-9.69245E+00-1.04055E-02 2.05653E-02-3.16240E+00-1.58507E-02 1.92513E-02-1.98861E-02 4.79577E+01-2.20734E+01-2.35395E+00



 n o d a l   p r i n t   o u t   f o r   t i m e  s t e p    6201                              ( at time 3.0996898E+00 )

 nodal point  x-rot      y-rot       z-rot       x-rot vel   y-rot vel   z-rot vel   x-rot acc   y-rot acc   z-rot acc
    22626 -1.59397E-06 2.34383E-05 3.99631E-05-1.96672E-06-7.56919E-05-1.33477E-04-2.47259E-05-4.85023E-05-1.25443E-04



 n o d a l   p r i n t   o u t   f o r   t i m e  s t e p    6401                              ( at time 3.1996798E+00 )

 nodal point  x-disp     y-disp      z-disp      x-vel       y-vel       z-vel      x-accl      y-accl      z-accl      x-coor      y-coor      z-coor
    22626 -7.54211E-03-4.15842E-02-1.00087E+01-1.09305E-02 1.97572E-02-3.16298E+00-5.25080E-03-8.08205E-03-5.77268E-03 4.79566E+01-2.20714E+01-2.67020E+00



 n o d a l   p r i n t   o u t   f o r   t i m e  s t e p    6401                              ( at time 3.1996798E+00 )

 nodal point  x-rot      y-rot       z-rot       x-rot vel   y-rot vel   z-rot vel   x-rot acc   y-rot acc   z-rot acc
    22626 -1.72819E-06 1.53632E-05 2.63649E-05-1.54547E-06-8.52750E-05-1.43833E-04 4.21291E-06-9.58403E-05-1.03567E-04



 n o d a l   p r i n t   o u t   f o r   t i m e  s t e p    6601                              ( at time 3.2996698E+00 )

 nodal point  x-disp     y-disp      z-disp      x-vel       y-vel       z-vel      x-accl      y-accl      z-accl      x-coor      y-coor      z-coor
    22626 -8.64804E-03-3.97045E-02-1.03249E+01-1.11930E-02 1.78230E-02-3.16270E+00-2.62515E-03-1.93439E-02 2.83508E-03 4.79555E+01-2.20695E+01-2.98645E+00



 n o d a l   p r i n t   o u t   f o r   t i m e  s t e p    6601                              ( at time 3.2996698E+00 )

 nodal point  x-rot      y-rot       z-rot       x-rot vel   y-rot vel   z-rot vel   x-rot acc   y-rot acc   z-rot acc
    22626 -1.99554E-06 6.67299E-06 1.16059E-05-2.54589E-06-8.94361E-05-1.51676E-04-1.00053E-05-4.16151E-05-7.84358E-05



 n o d a l   p r i n t   o u t   f o r   t i m e  s t e p    6801                              ( at time 3.3996598E+00 )

 nodal point  x-disp     y-disp      z-disp      x-vel       y-vel       z-vel      x-accl      y-accl      z-accl      x-coor      y-coor      z-coor
    22626 -9.79831E-03-3.80133E-02-1.06412E+01-1.16979E-02 1.60434E-02-3.16262E+00-5.04951E-03-1.77975E-02 7.51093E-04 4.79544E+01-2.20678E+01-3.30268E+00



 n o d a l   p r i n t   o u t   f o r   t i m e  s t e p    6801                              ( at time 3.3996598E+00 )

 nodal point  x-rot      y-rot       z-rot       x-rot vel   y-rot vel   z-rot vel   x-rot acc   y-rot acc   z-rot acc
    22626 -2.04421E-06-2.21826E-06-3.68767E-06-2.69311E-06-8.81270E-05-1.53241E-04-1.47230E-06 1.30926E-05-1.56524E-05



 n o d a l   p r i n t   o u t   f o r   t i m e  s t e p    7001                              ( at time 3.4996498E+00 )

 nodal point  x-disp     y-disp      z-disp      x-vel       y-vel       z-vel      x-accl      y-accl      z-accl      x-coor      y-coor      z-coor
    22626 -1.09960E-02-3.64834E-02-1.09574E+01-1.23375E-02 1.44973E-02-3.16282E+00-6.39637E-03-1.54627E-02-2.01723E-03 4.79532E+01-2.20663E+01-3.61893E+00



 n o d a l   p r i n t   o u t   f o r   t i m e  s t e p    7001                              ( at time 3.4996498E+00 )

 nodal point  x-rot      y-rot       z-rot       x-rot vel   y-rot vel   z-rot vel   x-rot acc   y-rot acc   z-rot acc
    22626 -2.03696E-06-1.08798E-05-1.85168E-05 7.34386E-07-8.72241E-05-1.47494E-04 3.42784E-05 9.02950E-06 5.74737E-05



 n o d a l   p r i n t   o u t   f o r   t i m e  s t e p    7201                              ( at time 3.5996397E+00 )

 nodal point  x-disp     y-disp      z-disp      x-vel       y-vel       z-vel      x-accl      y-accl      z-accl      x-coor      y-coor      z-coor
    22626 -1.22504E-02-3.51405E-02-1.12737E+01-1.24152E-02 1.20920E-02-3.16260E+00-7.76820E-04-2.40550E-02 2.20083E-03 4.79519E+01-2.20649E+01-3.93517E+00



 n o d a l   p r i n t   o u t   f o r   t i m e  s t e p    7201                              ( at time 3.5996397E+00 )

 nodal point  x-rot      y-rot       z-rot       x-rot vel   y-rot vel   z-rot vel   x-rot acc   y-rot acc   z-rot acc
    22626 -2.04600E-06-1.95002E-05-3.29971E-05 2.03096E-06-8.48277E-05-1.38617E-04 1.29671E-05 2.39669E-05 8.87781E-05



 n o d a l   p r i n t   o u t   f o r   t i m e  s t e p    7401                              ( at time 3.6996297E+00 )

 nodal point  x-disp     y-disp      z-disp      x-vel       y-vel       z-vel      x-accl      y-accl      z-accl      x-coor      y-coor      z-coor
    22626 -1.34800E-02-3.40969E-02-1.15899E+01-1.21533E-02 8.70144E-03-3.16159E+00 2.61907E-03-3.39093E-02 1.01362E-02 4.79507E+01-2.20639E+01-4.25135E+00



 n o d a l   p r i n t   o u t   f o r   t i m e  s t e p    7401                              ( at time 3.6996297E+00 )

 nodal point  x-rot      y-rot       z-rot       x-rot vel   y-rot vel   z-rot vel   x-rot acc   y-rot acc   z-rot acc
    22626 -1.79207E-06-2.77869E-05-4.67896E-05 3.61463E-06-8.12719E-05-1.36426E-04 1.58382E-05 3.55614E-05 2.19105E-05



 n o d a l   p r i n t   o u t   f o r   t i m e  s t e p    7601                              ( at time 3.7996197E+00 )

 nodal point  x-disp     y-disp      z-disp      x-vel       y-vel       z-vel      x-accl      y-accl      z-accl      x-coor      y-coor      z-coor
    22626 -1.46647E-02-3.33642E-02-1.19059E+01-1.15903E-02 6.00927E-03-3.16089E+00 5.63064E-03-2.69245E-02 7.01260E-03 4.79495E+01-2.20632E+01-4.56744E+00



 n o d a l   p r i n t   o u t   f o r   t i m e  s t e p    7601                              ( at time 3.7996197E+00 )

 nodal point  x-rot      y-rot       z-rot       x-rot vel   y-rot vel   z-rot vel   x-rot acc   y-rot acc   z-rot acc
    22626 -1.32970E-06-3.56000E-05-6.00568E-05 5.34901E-06-7.25037E-05-1.22106E-04 1.73455E-05 8.76903E-05 1.43216E-04



 n o d a l   p r i n t   o u t   f o r   t i m e  s t e p    7801                              ( at time 3.8996097E+00 )

 nodal point  x-disp     y-disp      z-disp      x-vel       y-vel       z-vel      x-accl      y-accl      z-accl      x-coor      y-coor      z-coor
    22626 -1.57921E-02-3.28630E-02-1.22220E+01-1.09344E-02 4.22133E-03-3.16080E+00 6.55960E-03-1.78811E-02 8.44085E-04 4.79484E+01-2.20627E+01-4.88349E+00



 n o d a l   p r i n t   o u t   f o r   t i m e  s t e p    7801                              ( at time 3.8996097E+00 )

 nodal point  x-rot      y-rot       z-rot       x-rot vel   y-rot vel   z-rot vel   x-rot acc   y-rot acc   z-rot acc
    22626 -9.69303E-07-4.21991E-05-7.11774E-05 5.99967E-07-5.76258E-05-9.61310E-05-4.74951E-05 1.48794E-04 2.59778E-04



 n o d a l   p r i n t   o u t   f o r   t i m e  s t e p    8001                              ( at time 3.9995997E+00 )

 nodal point  x-disp     y-disp      z-disp      x-vel       y-vel       z-vel      x-accl      y-accl      z-accl      x-coor      y-coor      z-coor
    22626 -1.68597E-02-3.24928E-02-1.25381E+01-1.03835E-02 3.14271E-03-3.16114E+00 5.50913E-03-1.07873E-02-3.37158E-03 4.79473E+01-2.20623E+01-5.19956E+00



 n o d a l   p r i n t   o u t   f o r   t i m e  s t e p    8001                              ( at time 3.9995997E+00 )

 nodal point  x-rot      y-rot       z-rot       x-rot vel   y-rot vel   z-rot vel   x-rot acc   y-rot acc   z-rot acc
    22626 -8.39924E-07-4.74485E-05-7.98607E-05-1.96205E-07-4.68593E-05-8.00221E-05-7.96252E-06 1.07675E-04 1.61105E-04



 n o d a l   p r i n t   o u t   f o r   t i m e  s t e p    8201                              ( at time 4.0995897E+00 )

 nodal point  x-disp     y-disp      z-disp      x-vel       y-vel       z-vel      x-accl      y-accl      z-accl      x-coor      y-coor      z-coor
    22626 -1.78161E-02-3.22932E-02-1.28541E+01-8.60315E-03 6.40812E-04-3.16065E+00 1.78055E-02-2.50215E-02 4.95006E-03 4.79464E+01-2.20621E+01-5.51562E+00



 n o d a l   p r i n t   o u t   f o r   t i m e  s t e p    8201                              ( at time 4.0995897E+00 )

 nodal point  x-rot      y-rot       z-rot       x-rot vel   y-rot vel   z-rot vel   x-rot acc   y-rot acc   z-rot acc
    22626 -8.48916E-07-5.15756E-05-8.68338E-05-2.26531E-07-3.24429E-05-5.68005E-05-3.03292E-07 1.44179E-04 2.32239E-04



 n o d a l   p r i n t   o u t   f o r   t i m e  s t e p    8401                              ( at time 4.1995797E+00 )

 nodal point  x-disp     y-disp      z-disp      x-vel       y-vel       z-vel      x-accl      y-accl      z-accl      x-coor      y-coor      z-coor
    22626 -1.85972E-02-3.23556E-02-1.31701E+01-6.96818E-03-1.79308E-03-3.16004E+00 1.63513E-02-2.43414E-02 6.05644E-03 4.79456E+01-2.20621E+01-5.83162E+00



 n o d a l   p r i n t   o u t   f o r   t i m e  s t e p    8401                              ( at time 4.1995797E+00 )

 nodal point  x-rot      y-rot       z-rot       x-rot vel   y-rot vel   z-rot vel   x-rot acc   y-rot acc   z-rot acc
    22626 -8.33248E-07-5.39504E-05-9.07847E-05-2.80841E-07-1.40715E-05-2.29634E-05-5.43155E-07 1.83732E-04 3.38405E-04



 n o d a l   p r i n t   o u t   f o r   t i m e  s t e p    8601                              ( at time 4.2995697E+00 )

 nodal point  x-disp     y-disp      z-disp      x-vel       y-vel       z-vel      x-accl      y-accl      z-accl      x-coor      y-coor      z-coor
    22626 -1.92302E-02-3.26544E-02-1.34861E+01-5.55646E-03-3.87803E-03-3.15987E+00 1.41187E-02-2.08516E-02 1.65718E-03 4.79450E+01-2.20624E+01-6.14757E+00



 n o d a l   p r i n t   o u t   f o r   t i m e  s t e p    8601                              ( at time 4.2995697E+00 )

 nodal point  x-rot      y-rot       z-rot       x-rot vel   y-rot vel   z-rot vel   x-rot acc   y-rot acc   z-rot acc
    22626 -8.56710E-07-5.43907E-05-9.16372E-05-4.36462E-07 2.95159E-06 4.73457E-06-1.55637E-06 1.70248E-04 2.77008E-04



 n o d a l   p r i n t   o u t   f o r   t i m e  s t e p    8801                              ( at time 4.3995597E+00 )

 nodal point  x-disp     y-disp      z-disp      x-vel       y-vel       z-vel      x-accl      y-accl      z-accl      x-coor      y-coor      z-coor
    22626 -1.96965E-02-3.30830E-02-1.38021E+01-3.80260E-03-4.73604E-03-3.16049E+00 1.75404E-02-8.58100E-03-6.11605E-03 4.79445E+01-2.20629E+01-6.46355E+00



 n o d a l   p r i n t   o u t   f o r   t i m e  s t e p    8801                              ( at time 4.3995597E+00 )

 nodal point  x-rot      y-rot       z-rot       x-rot vel   y-rot vel   z-rot vel   x-rot acc   y-rot acc   z-rot acc
    22626 -8.32629E-07-5.31097E-05-8.93186E-05 8.51594E-07 2.22117E-05 4.02724E-05 1.28819E-05 1.92621E-04 3.55414E-04



 n o d a l   p r i n t   o u t   f o r   t i m e  s t e p    9001                              ( at time 4.4995497E+00 )

 nodal point  x-disp     y-disp      z-disp      x-vel       y-vel       z-vel      x-accl      y-accl      z-accl      x-coor      y-coor      z-coor
    22626 -1.99940E-02-3.36525E-02-1.41181E+01-2.04846E-03-6.99217E-03-3.16009E+00 1.75430E-02-2.25635E-02 3.99390E-03 4.79442E+01-2.20634E+01-6.77956E+00



 n o d a l   p r i n t   o u t   f o r   t i m e  s t e p    9001                              ( at time 4.4995497E+00 )

 nodal point  x-rot      y-rot       z-rot       x-rot vel   y-rot vel   z-rot vel   x-rot acc   y-rot acc   z-rot acc
    22626 -6.94979E-07-4.96469E-05-8.32104E-05 3.34903E-06 4.40518E-05 7.66879E-05 2.49768E-05 2.18421E-04 3.64191E-04



 n o d a l   p r i n t   o u t   f o r   t i m e  s t e p    9201                              ( at time 4.5995397E+00 )

 nodal point  x-disp     y-disp      z-disp      x-vel       y-vel       z-vel      x-accl      y-accl      z-accl      x-coor      y-coor      z-coor
    22626 -2.01049E-02-3.45065E-02-1.44340E+01-1.25438E-04-9.89767E-03-3.15951E+00 1.92322E-02-2.90580E-02 5.80608E-03 4.79441E+01-2.20643E+01-7.09550E+00



 n o d a l   p r i n t   o u t   f o r   t i m e  s t e p    9201                              ( at time 4.5995397E+00 )

 nodal point  x-rot      y-rot       z-rot       x-rot vel   y-rot vel   z-rot vel   x-rot acc   y-rot acc   z-rot acc
    22626 -3.93021E-07-4.44274E-05-7.41003E-05 4.10185E-06 5.99817E-05 1.02837E-04 7.52889E-06 1.59316E-04 2.61514E-04



 n o d a l   p r i n t   o u t   f o r   t i m e  s t e p    9401                              ( at time 4.6995297E+00 )

 nodal point  x-disp     y-disp      z-disp      x-vel       y-vel       z-vel      x-accl      y-accl      z-accl      x-coor      y-coor      z-coor
    22626 -2.00002E-02-3.55769E-02-1.47499E+01 2.11486E-03-1.15000E-02-3.15936E+00 2.24052E-02-1.60249E-02 1.46881E-03 4.79442E+01-2.20654E+01-7.41142E+00



 n o d a l   p r i n t   o u t   f o r   t i m e  s t e p    9401                              ( at time 4.6995297E+00 )

 nodal point  x-rot      y-rot       z-rot       x-rot vel   y-rot vel   z-rot vel   x-rot acc   y-rot acc   z-rot acc
    22626 -1.75310E-08-3.72718E-05-6.16675E-05 2.79078E-06 8.45163E-05 1.45565E-04-1.31120E-05 2.45370E-04 4.27327E-04



 n o d a l   p r i n t   o u t   f o r   t i m e  s t e p    9601                              ( at time 4.7995197E+00 )

 nodal point  x-disp     y-disp      z-disp      x-vel       y-vel       z-vel      x-accl      y-accl      z-accl      x-coor      y-coor      z-coor
    22626 -1.96889E-02-3.67988E-02-1.50658E+01 4.00408E-03-1.27490E-02-3.15961E+00 1.88941E-02-1.24915E-02-2.56087E-03 4.79445E+01-2.20666E+01-7.72733E+00



 n o d a l   p r i n t   o u t   f o r   t i m e  s t e p    9601                              ( at time 4.7995197E+00 )

 nodal point  x-rot      y-rot       z-rot       x-rot vel   y-rot vel   z-rot vel   x-rot acc   y-rot acc   z-rot acc
    22626  2.81346E-07-2.75613E-05-4.50212E-05-1.06077E-07 1.09382E-04 1.87375E-04-2.89715E-05 2.48686E-04 4.18144E-04



 n o d a l   p r i n t   o u t   f o r   t i m e  s t e p    9801                              ( at time 4.8995097E+00 )

 nodal point  x-disp     y-disp      z-disp      x-vel       y-vel       z-vel      x-accl      y-accl      z-accl      x-coor      y-coor      z-coor
    22626 -1.91994E-02-3.81251E-02-1.53818E+01 5.77772E-03-1.38677E-02-3.15986E+00 1.77382E-02-1.11882E-02-2.50365E-03 4.79450E+01-2.20679E+01-8.04328E+00



 n o d a l   p r i n t   o u t   f o r   t i m e  s t e p    9801                              ( at time 4.8995097E+00 )

 nodal point  x-rot      y-rot       z-rot       x-rot vel   y-rot vel   z-rot vel   x-rot acc   y-rot acc   z-rot acc
    22626  3.04263E-07-1.57237E-05-2.46664E-05-9.21292E-07 1.26240E-04 2.16752E-04-8.15297E-06 1.68590E-04 2.93802E-04



 n o d a l   p r i n t   o u t   f o r   t i m e  s t e p   10001                              ( at time 4.9994997E+00 )

 nodal point  x-disp     y-disp      z-disp      x-vel       y-vel       z-vel      x-accl      y-accl      z-accl      x-coor      y-coor      z-coor
    22626 -1.84913E-02-3.96208E-02-1.56977E+01 8.36683E-03-1.62696E-02-3.15871E+00 2.58936E-02-2.40213E-02 1.15859E-02 4.79457E+01-2.20694E+01-8.35920E+00



 n o d a l   p r i n t   o u t   f o r   t i m e  s t e p   10001                              ( at time 4.9994997E+00 )

 nodal point  x-rot      y-rot       z-rot       x-rot vel   y-rot vel   z-rot vel   x-rot acc   y-rot acc   z-rot acc
    22626 -1.25176E-07-1.90977E-06-9.88519E-07-8.13876E-06 1.53889E-04 2.56342E-04-7.21816E-05 2.76516E-04 3.95933E-04



 n o d a l   p r i n t   o u t   f o r   t i m e  s t e p   10202                              ( at time 5.0999896E+00 )

 nodal point  x-disp     y-disp      z-disp      x-vel       y-vel       z-vel      x-accl      y-accl      z-accl      x-coor      y-coor      z-coor
    22626 -1.75576E-02-4.12889E-02-1.60150E+01 1.02304E-02-1.67712E-02-3.15638E+00 1.85446E-02-4.99174E-03 2.31919E-02 4.79466E+01-2.20711E+01-8.67649E+00



 n o d a l   p r i n t   o u t   f o r   t i m e  s t e p   10202                              ( at time 5.0999896E+00 )

 nodal point  x-rot      y-rot       z-rot       x-rot vel   y-rot vel   z-rot vel   x-rot acc   y-rot acc   z-rot acc
    22626 -2.63697E-07 1.56904E-05 2.58684E-05 8.26949E-06 1.97978E-04 2.79480E-04 1.63283E-04 4.38746E-04 2.30253E-04



 n o d a l   p r i n t   o u t   f o r   t i m e  s t e p   10402                              ( at time 5.1999796E+00 )

 nodal point  x-disp     y-disp      z-disp      x-vel       y-vel       z-vel      x-accl      y-accl      z-accl      x-coor      y-coor      z-coor
    22626 -1.64591E-02-4.29560E-02-1.63303E+01 1.18191E-02-1.62201E-02-3.15050E+00 1.58885E-02 5.51230E-03 5.87663E-02 4.79477E+01-2.20727E+01-8.99184E+00



 n o d a l   p r i n t   o u t   f o r   t i m e  s t e p   10402                              ( at time 5.1999796E+00 )

 nodal point  x-rot      y-rot       z-rot       x-rot vel   y-rot vel   z-rot vel   x-rot acc   y-rot acc   z-rot acc
    22626  8.86759E-07 4.00626E-05 5.54999E-05 1.55500E-05 2.86761E-04 3.04947E-04 7.28118E-05 8.87913E-04 2.54698E-04



 n o d a l   p r i n t   o u t   f o r   t i m e  s t e p   10602                              ( at time 5.2999696E+00 )

 nodal point  x-disp     y-disp      z-disp      x-vel       y-vel       z-vel      x-accl      y-accl      z-accl      x-coor      y-coor      z-coor
    22626 -1.51924E-02-4.44746E-02-1.66449E+01 1.33444E-02-1.40255E-02-3.13965E+00 1.52549E-02 2.19475E-02 1.08470E-01 4.79490E+01-2.20743E+01-9.30637E+00



 n o d a l   p r i n t   o u t   f o r   t i m e  s t e p   10602                              ( at time 5.2999696E+00 )

 nodal point  x-rot      y-rot       z-rot       x-rot vel   y-rot vel   z-rot vel   x-rot acc   y-rot acc   z-rot acc
    22626  5.00164E-06 7.46676E-05 8.60081E-05 7.36694E-05 4.12120E-04 3.01924E-04 5.81253E-04 1.25372E-03-3.02393E-05



 n o d a l   p r i n t   o u t   f o r   t i m e  s t e p   10802                              ( at time 5.3999596E+00 )

 nodal point  x-disp     y-disp      z-disp      x-vel       y-vel       z-vel      x-accl      y-accl      z-accl      x-coor      y-coor      z-coor
    22626 -1.38045E-02-4.56549E-02-1.69581E+01 1.49124E-02-9.80759E-03-3.12341E+00 1.56817E-02 4.21838E-02 1.62470E-01 4.79504E+01-2.20754E+01-9.61955E+00



 n o d a l   p r i n t   o u t   f o r   t i m e  s t e p   10802                              ( at time 5.3999596E+00 )

 nodal point  x-rot      y-rot       z-rot       x-rot vel   y-rot vel   z-rot vel   x-rot acc   y-rot acc   z-rot acc
    22626  1.77050E-05 1.23622E-04 1.14974E-04 1.68553E-04 5.82872E-04 2.83493E-04 9.48935E-04 1.70769E-03-1.84321E-04



 n o d a l   p r i n t   o u t   f o r   t i m e  s t e p   11002                              ( at time 5.4999496E+00 )

 nodal point  x-disp     y-disp      z-disp      x-vel       y-vel       z-vel      x-accl      y-accl      z-accl      x-coor      y-coor      z-coor
    22626 -1.21853E-02-4.65054E-02-1.72693E+01 1.77258E-02-6.93888E-03-3.10244E+00 2.81369E-02 2.86900E-02 2.09665E-01 4.79520E+01-2.20763E+01-9.93084E+00



 n o d a l   p r i n t   o u t   f o r   t i m e  s t e p   11002                              ( at time 5.4999496E+00 )

 nodal point  x-rot      y-rot       z-rot       x-rot vel   y-rot vel   z-rot vel   x-rot acc   y-rot acc   z-rot acc
    22626  3.82126E-05 1.92271E-04 1.41801E-04 2.59269E-04 7.87814E-04 2.55823E-04 9.07244E-04 2.04962E-03-2.76733E-04



 n o d a l   p r i n t   o u t   f o r   t i m e  s t e p   11202                              ( at time 5.5999396E+00 )

 nodal point  x-disp     y-disp      z-disp      x-vel       y-vel       z-vel      x-accl      y-accl      z-accl      x-coor      y-coor      z-coor
    22626 -1.02906E-02-4.68453E-02-1.75783E+01 1.95955E-02-1.59224E-04-3.07810E+00 1.86989E-02 6.78034E-02 2.43431E-01 4.79539E+01-2.20766E+01-1.02398E+01



 n o d a l   p r i n t   o u t   f o r   t i m e  s t e p   11202                              ( at time 5.5999396E+00 )

 nodal point  x-rot      y-rot       z-rot       x-rot vel   y-rot vel   z-rot vel   x-rot acc   y-rot acc   z-rot acc
    22626  7.11759E-05 2.82287E-04 1.64614E-04 3.98017E-04 1.02039E-03 2.01772E-04 1.38762E-03 2.32601E-03-5.40566E-04



 n o d a l   p r i n t   o u t   f o r   t i m e  s t e p   11402                              ( at time 5.6999296E+00 )

 nodal point  x-disp     y-disp      z-disp      x-vel       y-vel       z-vel      x-accl      y-accl      z-accl      x-coor      y-coor      z-coor
    22626 -8.19331E-03-4.65721E-02-1.78847E+01 2.18635E-02 6.39632E-03-3.04916E+00 2.26821E-02 6.55617E-02 2.89451E-01 4.79560E+01-2.20764E+01-1.05462E+01



 n o d a l   p r i n t   o u t   f o r   t i m e  s t e p   11402                              ( at time 5.6999296E+00 )

 nodal point  x-rot      y-rot       z-rot       x-rot vel   y-rot vel   z-rot vel   x-rot acc   y-rot acc   z-rot acc
    22626  1.16234E-04 3.99106E-04 1.83243E-04 5.16839E-04 1.30792E-03 1.44804E-04 1.18833E-03 2.87562E-03-5.69730E-04



 n o d a l   p r i n t   o u t   f o r   t i m e  s t e p   11602                              ( at time 5.7999195E+00 )

 nodal point  x-disp     y-disp      z-disp      x-vel       y-vel       z-vel      x-accl      y-accl      z-accl      x-coor      y-coor      z-coor
    22626 -5.82726E-03-4.56320E-02-1.81881E+01 2.48856E-02 1.28380E-02-3.01840E+00 3.02245E-02 6.44238E-02 3.07667E-01 4.79584E+01-2.20754E+01-1.08496E+01



 n o d a l   p r i n t   o u t   f o r   t i m e  s t e p   11602                              ( at time 5.7999195E+00 )

 nodal point  x-rot      y-rot       z-rot       x-rot vel   y-rot vel   z-rot vel   x-rot acc   y-rot acc   z-rot acc
    22626  1.75464E-04 5.43649E-04 1.95621E-04 6.84233E-04 1.58792E-03 8.47706E-05 1.67412E-03 2.80027E-03-6.00398E-04



 n o d a l   p r i n t   o u t   f o r   t i m e  s t e p   11802                              ( at time 5.8999095E+00 )

 nodal point  x-disp     y-disp      z-disp      x-vel       y-vel       z-vel      x-accl      y-accl      z-accl      x-coor      y-coor      z-coor
    22626 -3.21959E-03-4.40746E-02-1.84881E+01 2.76272E-02 1.81009E-02-2.98371E+00 2.74182E-02 5.26335E-02 3.46901E-01 4.79610E+01-2.20739E+01-1.11496E+01



 n o d a l   p r i n t   o u t   f o r   t i m e  s t e p   11802                              ( at time 5.8999095E+00 )

 nodal point  x-rot      y-rot       z-rot       x-rot vel   y-rot vel   z-rot vel   x-rot acc   y-rot acc   z-rot acc
    22626  2.50763E-04 7.18565E-04 2.00715E-04 8.12296E-04 1.91888E-03 1.07886E-05 1.28076E-03 3.30991E-03-7.39895E-04



 n o d a l   p r i n t   o u t   f o r   t i m e  s t e p   12002                              ( at time 5.9998995E+00 )

 nodal point  x-disp     y-disp      z-disp      x-vel       y-vel       z-vel      x-accl      y-accl      z-accl      x-coor      y-coor      z-coor
    22626 -3.26560E-04-4.19307E-02-1.87846E+01 3.03772E-02 2.47778E-02-2.94694E+00 2.75024E-02 6.67758E-02 3.67722E-01 4.79639E+01-2.20717E+01-1.14461E+01



 n o d a l   p r i n t   o u t   f o r   t i m e  s t e p   12002                              ( at time 5.9998995E+00 )

 nodal point  x-rot      y-rot       z-rot       x-rot vel   y-rot vel   z-rot vel   x-rot acc   y-rot acc   z-rot acc
    22626  3.41080E-04 9.27833E-04 1.97805E-04 9.93748E-04 2.24553E-03-7.41542E-05 1.81470E-03 3.26683E-03-8.49514E-04



 n o d a l   p r i n t   o u t   f o r   t i m e  s t e p   12202                              ( at time 6.0998895E+00 )

 nodal point  x-disp     y-disp      z-disp      x-vel       y-vel       z-vel      x-accl      y-accl      z-accl      x-coor      y-coor      z-coor
    22626  2.89536E-03-3.91049E-02-1.90774E+01 3.40469E-02 3.22585E-02-2.90842E+00 3.67011E-02 7.48141E-02 3.85219E-01 4.79671E+01-2.20689E+01-1.17389E+01



 n o d a l   p r i n t   o u t   f o r   t i m e  s t e p   12202                              ( at time 6.0998895E+00 )

 nodal point  x-rot      y-rot       z-rot       x-rot vel   y-rot vel   z-rot vel   x-rot acc   y-rot acc   z-rot acc
    22626  4.49046E-04 1.16829E-03 1.86499E-04 1.15556E-03 2.56998E-03-1.65101E-04 1.61826E-03 3.24484E-03-9.09554E-04



 n o d a l   p r i n t   o u t   f o r   t i m e  s t e p   12402                              ( at time 6.1998795E+00 )

 nodal point  x-disp     y-disp      z-disp      x-vel       y-vel       z-vel      x-accl      y-accl      z-accl      x-coor      y-coor      z-coor
    22626  6.49283E-03-3.55550E-02-1.93662E+01 3.77503E-02 3.83419E-02-2.86837E+00 3.70377E-02 6.08400E-02 4.00538E-01 4.79707E+01-2.20653E+01-1.20277E+01



 n o d a l   p r i n t   o u t   f o r   t i m e  s t e p   12402                              ( at time 6.1998795E+00 )

 nodal point  x-rot      y-rot       z-rot       x-rot vel   y-rot vel   z-rot vel   x-rot acc   y-rot acc   z-rot acc
    22626  5.73193E-04 1.44375E-03 1.64893E-04 1.33229E-03 2.93209E-03-2.57989E-04 1.76753E-03 3.62139E-03-9.28976E-04



 n o d a l   p r i n t   o u t   f o r   t i m e  s t e p   12602                              ( at time 6.2998695E+00 )

 nodal point  x-disp     y-disp      z-disp      x-vel       y-vel       z-vel      x-accl      y-accl      z-accl      x-coor      y-coor      z-coor
    22626  1.04886E-02-3.13215E-02-1.96508E+01 4.29239E-02 4.54384E-02-2.82488E+00 5.17413E-02 7.09727E-02 4.34943E-01 4.79747E+01-2.20611E+01-1.23123E+01



 n o d a l   p r i n t   o u t   f o r   t i m e  s t e p   12602                              ( at time 6.2998695E+00 )

 nodal point  x-rot      y-rot       z-rot       x-rot vel   y-rot vel   z-rot vel   x-rot acc   y-rot acc   z-rot acc
    22626  7.17089E-04 1.75369E-03 1.32784E-04 1.52702E-03 3.25983E-03-3.72399E-04 1.94746E-03 3.27777E-03-1.14421E-03



 n o d a l   p r i n t   o u t   f o r   t i m e  s t e p   12802                              ( at time 6.3998595E+00 )

 nodal point  x-disp     y-disp      z-disp      x-vel       y-vel       z-vel      x-accl      y-accl      z-accl      x-coor      y-coor      z-coor
    22626  1.50771E-02-2.64039E-02-1.99310E+01 4.87566E-02 5.27811E-02-2.77949E+00 5.83331E-02 7.34339E-02 4.53992E-01 4.79793E+01-2.20562E+01-1.25925E+01



 n o d a l   p r i n t   o u t   f o r   t i m e  s t e p   12802                              ( at time 6.3998595E+00 )

 nodal point  x-rot      y-rot       z-rot       x-rot vel   y-rot vel   z-rot vel   x-rot acc   y-rot acc   z-rot acc
    22626  8.79430E-04 2.09788E-03 8.85935E-05 1.71379E-03 3.63341E-03-4.98230E-04 1.86787E-03 3.73614E-03-1.25844E-03



 n o d a l   p r i n t   o u t   f o r   t i m e  s t e p   13002                              ( at time 6.4998495E+00 )

 nodal point  x-disp     y-disp      z-disp      x-vel       y-vel       z-vel      x-accl      y-accl      z-accl      x-coor      y-coor      z-coor
    22626  2.02718E-02-2.07454E-02-2.02067E+01 5.50706E-02 6.09095E-02-2.73385E+00 6.31465E-02 8.12927E-02 4.56468E-01 4.79845E+01-2.20505E+01-1.28682E+01



 n o d a l   p r i n t   o u t   f o r   t i m e  s t e p   13002                              ( at time 6.4998495E+00 )

 nodal point  x-rot      y-rot       z-rot       x-rot vel   y-rot vel   z-rot vel   x-rot acc   y-rot acc   z-rot acc
    22626  1.06095E-03 2.47744E-03 3.41018E-05 1.93628E-03 3.96123E-03-6.01923E-04 2.22514E-03 3.27860E-03-1.03703E-03



 n o d a l   p r i n t   o u t   f o r   t i m e  s t e p   13202                              ( at time 6.5998395E+00 )

 nodal point  x-disp     y-disp      z-disp      x-vel       y-vel       z-vel      x-accl      y-accl      z-accl      x-coor      y-coor      z-coor
    22626  2.61683E-02-1.42531E-02-2.04776E+01 6.27019E-02 6.87848E-02-2.68550E+00 7.63199E-02 7.87610E-02 4.83562E-01 4.79903E+01-2.20440E+01-1.31391E+01



 n o d a l   p r i n t   o u t   f o r   t i m e  s t e p   13202                              ( at time 6.5998395E+00 )

 nodal point  x-rot      y-rot       z-rot       x-rot vel   y-rot vel   z-rot vel   x-rot acc   y-rot acc   z-rot acc
    22626  1.26502E-03 2.89035E-03-3.28144E-05 2.15190E-03 4.29395E-03-7.28548E-04 2.15637E-03 3.32745E-03-1.26637E-03



 n o d a l   p r i n t   o u t   f o r   t i m e  s t e p   13402                              ( at time 6.6998295E+00 )

 nodal point  x-disp     y-disp      z-disp      x-vel       y-vel       z-vel      x-accl      y-accl      z-accl      x-coor      y-coor      z-coor
    22626  3.28443E-02-7.01797E-03-2.07438E+01 7.13493E-02 7.57988E-02-2.63737E+00 8.64830E-02 7.01463E-02 4.81320E-01 4.79970E+01-2.20368E+01-1.34053E+01



 n o d a l   p r i n t   o u t   f o r   t i m e  s t e p   13402                              ( at time 6.6998295E+00 )

 nodal point  x-rot      y-rot       z-rot       x-rot vel   y-rot vel   z-rot vel   x-rot acc   y-rot acc   z-rot acc
    22626  1.48887E-03 3.33506E-03-1.11794E-04 2.34145E-03 4.59676E-03-8.43095E-04 1.89575E-03 3.02849E-03-1.14559E-03



 n o d a l   p r i n t   o u t   f o r   t i m e  s t e p   13602                              ( at time 6.7998195E+00 )

 nodal point  x-disp     y-disp      z-disp      x-vel       y-vel       z-vel      x-accl      y-accl      z-accl      x-coor      y-coor      z-coor
    22626  4.03946E-02 9.61701E-04-2.10049E+01 8.01485E-02 8.36634E-02-2.58564E+00 8.80011E-02 7.86549E-02 5.17390E-01 4.80046E+01-2.20288E+01-1.36664E+01



 n o d a l   p r i n t   o u t   f o r   t i m e  s t e p   13602                              ( at time 6.7998195E+00 )

 nodal point  x-rot      y-rot       z-rot       x-rot vel   y-rot vel   z-rot vel   x-rot acc   y-rot acc   z-rot acc
    22626  1.73616E-03 3.81047E-03-2.02751E-04 2.59031E-03 4.91046E-03-9.68515E-04 2.48886E-03 3.13727E-03-1.25433E-03



 n o d a l   p r i n t   o u t   f o r   t i m e  s t e p   13802                              ( at time 6.8998095E+00 )

 nodal point  x-disp     y-disp      z-disp      x-vel       y-vel       z-vel      x-accl      y-accl      z-accl      x-coor      y-coor      z-coor
    22626  4.88704E-02 9.72128E-03-2.12609E+01 8.92672E-02 9.16309E-02-2.53389E+00 9.11961E-02 7.96822E-02 5.17466E-01 4.80131E+01-2.20201E+01-1.39224E+01



 n o d a l   p r i n t   o u t   f o r   t i m e  s t e p   13802                              ( at time 6.8998095E+00 )

 nodal point  x-rot      y-rot       z-rot       x-rot vel   y-rot vel   z-rot vel   x-rot acc   y-rot acc   z-rot acc
    22626  2.00578E-03 4.31645E-03-3.06926E-04 2.81327E-03 5.21281E-03-1.10413E-03 2.22980E-03 3.02382E-03-1.35632E-03



 n o d a l   p r i n t   o u t   f o r   t i m e  s t e p   14002                              ( at time 6.9997995E+00 )

 nodal point  x-disp     y-disp      z-disp      x-vel       y-vel       z-vel      x-accl      y-accl      z-accl      x-coor      y-coor      z-coor
    22626  5.82883E-02 1.92640E-02-2.15116E+01 9.88472E-02 9.91667E-02-2.48157E+00 9.58097E-02 7.53661E-02 5.23267E-01 4.80225E+01-2.20105E+01-1.41731E+01



 n o d a l   p r i n t   o u t   f o r   t i m e  s t e p   14002                              ( at time 6.9997995E+00 )

 nodal point  x-rot      y-rot       z-rot       x-rot vel   y-rot vel   z-rot vel   x-rot acc   y-rot acc   z-rot acc
    22626  2.29839E-03 4.85171E-03-4.23727E-04 3.04354E-03 5.49061E-03-1.22872E-03 2.30293E-03 2.77825E-03-1.24604E-03



 n o d a l   p r i n t   o u t   f o r   t i m e  s t e p   14202                              ( at time 7.0997895E+00 )

 nodal point  x-disp     y-disp      z-disp      x-vel       y-vel       z-vel      x-accl      y-accl      z-accl      x-coor      y-coor      z-coor
    22626  6.86541E-02 2.96177E-02-2.17569E+01 1.08634E-01 1.07621E-01-2.42567E+00 9.78727E-02 8.45463E-02 5.59052E-01 4.80328E+01-2.20002E+01-1.44184E+01



 n o d a l   p r i n t   o u t   f o r   t i m e  s t e p   14202                              ( at time 7.0997895E+00 )

 nodal point  x-rot      y-rot       z-rot       x-rot vel   y-rot vel   z-rot vel   x-rot acc   y-rot acc   z-rot acc
    22626  2.61511E-03 5.41595E-03-5.53448E-04 3.28849E-03 5.79909E-03-1.36409E-03 2.44978E-03 3.08508E-03-1.35376E-03



 n o d a l   p r i n t   o u t   f o r   t i m e  s t e p   14402                              ( at time 7.1997794E+00 )

 nodal point  x-disp     y-disp      z-disp      x-vel       y-vel       z-vel      x-accl      y-accl      z-accl      x-coor      y-coor      z-coor
    22626  8.00117E-02 4.06280E-02-2.19967E+01 1.18471E-01 1.12964E-01-2.37053E+00 9.83853E-02 5.34366E-02 5.51504E-01 4.80442E+01-2.19892E+01-1.46582E+01



 n o d a l   p r i n t   o u t   f o r   t i m e  s t e p   14402                              ( at time 7.1997794E+00 )

 nodal point  x-rot      y-rot       z-rot       x-rot vel   y-rot vel   z-rot vel   x-rot acc   y-rot acc   z-rot acc
    22626  2.95646E-03 6.00958E-03-6.95245E-04 3.51535E-03 6.07601E-03-1.47278E-03 2.26877E-03 2.76952E-03-1.08701E-03



 n o d a l   p r i n t   o u t   f o r   t i m e  s t e p   14602                              ( at time 7.2997694E+00 )

 nodal point  x-disp     y-disp      z-disp      x-vel       y-vel       z-vel      x-accl      y-accl      z-accl      x-coor      y-coor      z-coor
    22626  9.23233E-02 5.22620E-02-2.22310E+01 1.27345E-01 1.19579E-01-2.31480E+00 8.87446E-02 6.61632E-02 5.57331E-01 4.80565E+01-2.19775E+01-1.48925E+01



 n o d a l   p r i n t   o u t   f o r   t i m e  s t e p   14602                              ( at time 7.2997694E+00 )

 nodal point  x-rot      y-rot       z-rot       x-rot vel   y-rot vel   z-rot vel   x-rot acc   y-rot acc   z-rot acc
    22626  3.32163E-03 6.63150E-03-8.48390E-04 3.77212E-03 6.36459E-03-1.59391E-03 2.56793E-03 2.88605E-03-1.21141E-03



 n o d a l   p r i n t   o u t   f o r   t i m e  s t e p   14802                              ( at time 7.3997594E+00 )

 nodal point  x-disp     y-disp      z-disp      x-vel       y-vel       z-vel      x-accl      y-accl      z-accl      x-coor      y-coor      z-coor
    22626  1.05534E-01 6.45603E-02-2.24595E+01 1.36995E-01 1.25459E-01-2.25734E+00 9.65094E-02 5.88059E-02 5.74683E-01 4.80697E+01-2.19652E+01-1.51210E+01



 n o d a l   p r i n t   o u t   f o r   t i m e  s t e p   14802                              ( at time 7.3997594E+00 )

 nodal point  x-rot      y-rot       z-rot       x-rot vel   y-rot vel   z-rot vel   x-rot acc   y-rot acc   z-rot acc
    22626  3.71290E-03 7.28239E-03-1.01365E-03 4.04688E-03 6.63919E-03-1.70495E-03 2.74788E-03 2.74632E-03-1.11051E-03



 n o d a l   p r i n t   o u t   f o r   t i m e  s t e p   15002                              ( at time 7.4997494E+00 )

 nodal point  x-disp     y-disp      z-disp      x-vel       y-vel       z-vel      x-accl      y-accl      z-accl      x-coor      y-coor      z-coor
    22626  1.19659E-01 7.73181E-02-2.26823E+01 1.45061E-01 1.29660E-01-2.19802E+00 8.06722E-02 4.20147E-02 5.93221E-01 4.80838E+01-2.19525E+01-1.53438E+01



 n o d a l   p r i n t   o u t   f o r   t i m e  s t e p   15002                              ( at time 7.4997494E+00 )

 nodal point  x-rot      y-rot       z-rot       x-rot vel   y-rot vel   z-rot vel   x-rot acc   y-rot acc   z-rot acc
    22626  4.13043E-03 7.96086E-03-1.18858E-03 4.30323E-03 6.94180E-03-1.80130E-03 2.56378E-03 3.02641E-03-9.63665E-04



 n o d a l   p r i n t   o u t   f o r   t i m e  s t e p   15202                              ( at time 7.5997394E+00 )

 nodal point  x-disp     y-disp      z-disp      x-vel       y-vel       z-vel      x-accl      y-accl      z-accl      x-coor      y-coor      z-coor
    22626  1.34521E-01 9.04582E-02-2.28990E+01 1.52327E-01 1.33142E-01-2.13665E+00 7.26657E-02 3.48246E-02 6.13799E-01 4.80987E+01-2.19393E+01-1.55605E+01



 n o d a l   p r i n t   o u t   f o r   t i m e  s t e p   15202                              ( at time 7.5997394E+00 )

 nodal point  x-rot      y-rot       z-rot       x-rot vel   y-rot vel   z-rot vel   x-rot acc   y-rot acc   z-rot acc
    22626  4.57394E-03 8.66901E-03-1.37386E-03 4.56926E-03 7.22736E-03-1.90753E-03 2.66060E-03 2.85583E-03-1.06238E-03



 n o d a l   p r i n t   o u t   f o r   t i m e  s t e p   15402                              ( at time 7.6997294E+00 )

 nodal point  x-disp     y-disp      z-disp      x-vel       y-vel       z-vel      x-accl      y-accl      z-accl      x-coor      y-coor      z-coor
    22626  1.50155E-01 1.03903E-01-2.31094E+01 1.59810E-01 1.36089E-01-2.07222E+00 7.48416E-02 2.94721E-02 6.44356E-01 4.81143E+01-2.19259E+01-1.57709E+01



 n o d a l   p r i n t   o u t   f o r   t i m e  s t e p   15402                              ( at time 7.6997294E+00 )

 nodal point  x-rot      y-rot       z-rot       x-rot vel   y-rot vel   z-rot vel   x-rot acc   y-rot acc   z-rot acc
    22626  5.04756E-03 9.40486E-03-1.56860E-03 4.89703E-03 7.50256E-03-1.99730E-03 3.27802E-03 2.75236E-03-8.97759E-04



 n o d a l   p r i n t   o u t   f o r   t i m e  s t e p   15602                              ( at time 7.7997194E+00 )

 nodal point  x-disp     y-disp      z-disp      x-vel       y-vel       z-vel      x-accl      y-accl      z-accl      x-coor      y-coor      z-coor
    22626  1.66515E-01 1.17592E-01-2.33133E+01 1.67061E-01 1.37598E-01-2.00704E+00 7.25165E-02 1.50891E-02 6.51845E-01 4.81307E+01-2.19122E+01-1.59748E+01



 n o d a l   p r i n t   o u t   f o r   t i m e  s t e p   15602                              ( at time 7.7997194E+00 )

 nodal point  x-rot      y-rot       z-rot       x-rot vel   y-rot vel   z-rot vel   x-rot acc   y-rot acc   z-rot acc
    22626  5.55076E-03 1.01697E-02-1.77291E-03 5.17258E-03 7.78407E-03-2.08962E-03 2.75573E-03 2.81530E-03-9.23337E-04



 n o d a l   p r i n t   o u t   f o r   t i m e  s t e p   15802                              ( at time 7.8997094E+00 )

 nodal point  x-disp     y-disp      z-disp      x-vel       y-vel       z-vel      x-accl      y-accl      z-accl      x-coor      y-coor      z-coor
    22626  1.83589E-01 1.31391E-01-2.35107E+01 1.74430E-01 1.38701E-01-1.94191E+00 7.36971E-02 1.10311E-02 6.51373E-01 4.81478E+01-2.18984E+01-1.61722E+01



 n o d a l   p r i n t   o u t   f o r   t i m e  s t e p   15802                              ( at time 7.8997094E+00 )

 nodal point  x-rot      y-rot       z-rot       x-rot vel   y-rot vel   z-rot vel   x-rot acc   y-rot acc   z-rot acc
    22626  6.08284E-03 1.09595E-02-1.98538E-03 5.48018E-03 8.00251E-03-2.15663E-03 3.07633E-03 2.18469E-03-6.70108E-04



 n o d a l   p r i n t   o u t   f o r   t i m e  s t e p   16002                              ( at time 7.9996994E+00 )

 nodal point  x-disp     y-disp      z-disp      x-vel       y-vel       z-vel      x-accl      y-accl      z-accl      x-coor      y-coor      z-coor
    22626  2.01393E-01 1.45284E-01-2.37014E+01 1.81385E-01 1.39180E-01-1.87245E+00 6.95500E-02 4.79059E-03 6.94629E-01 4.81656E+01-2.18845E+01-1.63629E+01



 n o d a l   p r i n t   o u t   f o r   t i m e  s t e p   16002                              ( at time 7.9996994E+00 )

 nodal point  x-rot      y-rot       z-rot       x-rot vel   y-rot vel   z-rot vel   x-rot acc   y-rot acc   z-rot acc
    22626  6.64633E-03 1.17734E-02-2.20518E-03 5.80052E-03 8.26677E-03-2.24245E-03 3.20377E-03 2.64288E-03-8.58301E-04



 n o d a l   p r i n t   o u t   f o r   t i m e  s t e p   16202                              ( at time 8.0996894E+00 )

 nodal point  x-disp     y-disp      z-disp      x-vel       y-vel       z-vel      x-accl      y-accl      z-accl      x-coor      y-coor      z-coor
    22626  2.19895E-01 1.59142E-01-2.38851E+01 1.88422E-01 1.37794E-01-1.80152E+00 7.03793E-02-1.38581E-02 7.09433E-01 4.81841E+01-2.18706E+01-1.65466E+01



 n o d a l   p r i n t   o u t   f o r   t i m e  s t e p   16202                              ( at time 8.0996894E+00 )

 nodal point  x-rot      y-rot       z-rot       x-rot vel   y-rot vel   z-rot vel   x-rot acc   y-rot acc   z-rot acc
    22626  7.24363E-03 1.26118E-02-2.43337E-03 6.13790E-03 8.48118E-03-2.30332E-03 3.37409E-03 2.14426E-03-6.08837E-04



 n o d a l   p r i n t   o u t   f o r   t i m e  s t e p   16402                              ( at time 8.1996794E+00 )

 nodal point  x-disp     y-disp      z-disp      x-vel       y-vel       z-vel      x-accl      y-accl      z-accl      x-coor      y-coor      z-coor
    22626  2.39158E-01 1.72898E-01-2.40618E+01 1.96406E-01 1.37164E-01-1.73175E+00 7.98482E-02-6.31039E-03 6.97752E-01 4.82033E+01-2.18569E+01-1.67233E+01



 n o d a l   p r i n t   o u t   f o r   t i m e  s t e p   16402                              ( at time 8.1996794E+00 )

 nodal point  x-rot      y-rot       z-rot       x-rot vel   y-rot vel   z-rot vel   x-rot acc   y-rot acc   z-rot acc
    22626  7.87349E-03 1.34689E-02-2.66801E-03 6.45563E-03 8.67807E-03-2.37852E-03 3.17765E-03 1.96915E-03-7.52058E-04



 n o d a l   p r i n t   o u t   f o r   t i m e  s t e p   16602                              ( at time 8.2996694E+00 )

 nodal point  x-disp     y-disp      z-disp      x-vel       y-vel       z-vel      x-accl      y-accl      z-accl      x-coor      y-coor      z-coor
    22626  2.59106E-01 1.86506E-01-2.42313E+01 2.02967E-01 1.35146E-01-1.65922E+00 6.56231E-02-2.01734E-02 7.25383E-01 4.82233E+01-2.18433E+01-1.68928E+01



 n o d a l   p r i n t   o u t   f o r   t i m e  s t e p   16602                              ( at time 8.2996694E+00 )

 nodal point  x-rot      y-rot       z-rot       x-rot vel   y-rot vel   z-rot vel   x-rot acc   y-rot acc   z-rot acc
    22626  8.53684E-03 1.43469E-02-2.90970E-03 6.82574E-03 8.87814E-03-2.44635E-03 3.70148E-03 2.00090E-03-6.78358E-04



 n o d a l   p r i n t   o u t   f o r   t i m e  s t e p   16802                              ( at time 8.3996594E+00 )

 nodal point  x-disp     y-disp      z-disp      x-vel       y-vel       z-vel      x-accl      y-accl      z-accl      x-coor      y-coor      z-coor
    22626  2.79717E-01 1.99876E-01-2.43935E+01 2.10177E-01 1.31061E-01-1.58693E+00 7.21037E-02-4.08598E-02 7.22970E-01 4.82439E+01-2.18299E+01-1.70550E+01



 n o d a l   p r i n t   o u t   f o r   t i m e  s t e p   16802                              ( at time 8.3996594E+00 )

 nodal point  x-rot      y-rot       z-rot       x-rot vel   y-rot vel   z-rot vel   x-rot acc   y-rot acc   z-rot acc
    22626  9.23743E-03 1.52421E-02-3.15769E-03 7.18074E-03 9.01386E-03-2.51525E-03 3.55029E-03 1.35732E-03-6.89037E-04



 n o d a l   p r i n t   o u t   f o r   t i m e  s t e p   17002                              ( at time 8.4996494E+00 )

 nodal point  x-disp     y-disp      z-disp      x-vel       y-vel       z-vel      x-accl      y-accl      z-accl      x-coor      y-coor      z-coor
    22626  3.01078E-01 2.12759E-01-2.45484E+01 2.17277E-01 1.26553E-01-1.51157E+00 7.10060E-02-4.50797E-02 7.53648E-01 4.82653E+01-2.18170E+01-1.72099E+01



 n o d a l   p r i n t   o u t   f o r   t i m e  s t e p   17002                              ( at time 8.4996494E+00 )

 nodal point  x-rot      y-rot       z-rot       x-rot vel   y-rot vel   z-rot vel   x-rot acc   y-rot acc   z-rot acc
    22626  9.97270E-03 1.61511E-02-3.41294E-03 7.53271E-03 9.16706E-03-2.59277E-03 3.52008E-03 1.53214E-03-7.75267E-04



 n o d a l   p r i n t   o u t   f o r   t i m e  s t e p   17202                              ( at time 8.5996394E+00 )

 nodal point  x-disp     y-disp      z-disp      x-vel       y-vel       z-vel      x-accl      y-accl      z-accl      x-coor      y-coor      z-coor
    22626  3.23052E-01 2.25114E-01-2.46956E+01 2.22784E-01 1.21039E-01-1.43317E+00 5.50780E-02-5.51440E-02 7.84052E-01 4.82872E+01-2.18047E+01-1.73571E+01



 n o d a l   p r i n t   o u t   f o r   t i m e  s t e p   17202                              ( at time 8.5996394E+00 )

 nodal point  x-rot      y-rot       z-rot       x-rot vel   y-rot vel   z-rot vel   x-rot acc   y-rot acc   z-rot acc
    22626  1.07457E-02 1.70754E-02-3.67415E-03 7.93953E-03 9.30143E-03-2.63727E-03 4.06859E-03 1.34387E-03-4.45073E-04



 n o d a l   p r i n t   o u t   f o r   t i m e  s t e p   17402                              ( at time 8.6996293E+00 )

 nodal point  x-disp     y-disp      z-disp      x-vel       y-vel       z-vel      x-accl      y-accl      z-accl      x-coor      y-coor      z-coor
    22626  3.45682E-01 2.36906E-01-2.48351E+01 2.30637E-01 1.14396E-01-1.35566E+00 7.85396E-02-6.64372E-02 7.75203E-01 4.83099E+01-2.17929E+01-1.74966E+01



 n o d a l   p r i n t   o u t   f o r   t i m e  s t e p   17402                              ( at time 8.6996293E+00 )

 nodal point  x-rot      y-rot       z-rot       x-rot vel   y-rot vel   z-rot vel   x-rot acc   y-rot acc   z-rot acc
    22626  1.15588E-02 1.80103E-02-3.94159E-03 8.31560E-03 9.41609E-03-2.70081E-03 3.76112E-03 1.14668E-03-6.35441E-04



 n o d a l   p r i n t   o u t   f o r   t i m e  s t e p   17602                              ( at time 8.7996193E+00 )

 nodal point  x-disp     y-disp      z-disp      x-vel       y-vel       z-vel      x-accl      y-accl      z-accl      x-coor      y-coor      z-coor
    22626  3.69043E-01 2.47963E-01-2.49667E+01 2.37544E-01 1.07073E-01-1.27772E+00 6.90774E-02-7.32439E-02 7.79457E-01 4.83332E+01-2.17818E+01-1.76282E+01



 n o d a l   p r i n t   o u t   f o r   t i m e  s t e p   17602                              ( at time 8.7996193E+00 )

 nodal point  x-rot      y-rot       z-rot       x-rot vel   y-rot vel   z-rot vel   x-rot acc   y-rot acc   z-rot acc
    22626  1.24085E-02 1.89571E-02-4.21573E-03 8.68659E-03 9.51625E-03-2.75739E-03 3.71024E-03 1.00167E-03-5.65917E-04



 n o d a l   p r i n t   o u t   f o r   t i m e  s t e p   17802                              ( at time 8.8996093E+00 )

 nodal point  x-disp     y-disp      z-disp      x-vel       y-vel       z-vel      x-accl      y-accl      z-accl      x-coor      y-coor      z-coor
    22626  3.93077E-01 2.58421E-01-2.50906E+01 2.44369E-01 1.01202E-01-1.19994E+00 6.82541E-02-5.87158E-02 7.77962E-01 4.83573E+01-2.17714E+01-1.77521E+01



 n o d a l   p r i n t   o u t   f o r   t i m e  s t e p   17802                              ( at time 8.8996093E+00 )

 nodal point  x-rot      y-rot       z-rot       x-rot vel   y-rot vel   z-rot vel   x-rot acc   y-rot acc   z-rot acc
    22626  1.32993E-02 1.99122E-02-4.49481E-03 9.11402E-03 9.60340E-03-2.80703E-03 4.27469E-03 8.71610E-04-4.96436E-04



 n o d a l   p r i n t   o u t   f o r   t i m e  s t e p   18002                              ( at time 8.9995993E+00 )

 nodal point  x-disp     y-disp      z-disp      x-vel       y-vel       z-vel      x-accl      y-accl      z-accl      x-coor      y-coor      z-coor
    22626  4.17863E-01 2.68221E-01-2.52066E+01 2.51669E-01 9.47691E-02-1.12198E+00 7.30083E-02-6.43327E-02 7.79657E-01 4.83820E+01-2.17616E+01-1.78681E+01



 n o d a l   p r i n t   o u t   f o r   t i m e  s t e p   18002                              ( at time 8.9995993E+00 )

 nodal point  x-rot      y-rot       z-rot       x-rot vel   y-rot vel   z-rot vel   x-rot acc   y-rot acc   z-rot acc
    22626  1.42302E-02 2.08778E-02-4.78007E-03 9.50614E-03 9.70429E-03-2.88148E-03 3.92161E-03 1.00902E-03-7.44533E-04



 n o d a l   p r i n t   o u t   f o r   t i m e  s t e p   18202                              ( at time 9.0995893E+00 )

 nodal point  x-disp     y-disp      z-disp      x-vel       y-vel       z-vel      x-accl      y-accl      z-accl      x-coor      y-coor      z-coor
    22626  4.43401E-01 2.77418E-01-2.53152E+01 2.58317E-01 8.91568E-02-1.04852E+00 6.64829E-02-5.61282E-02 7.34631E-01 4.84076E+01-2.17524E+01-1.79767E+01



 n o d a l   p r i n t   o u t   f o r   t i m e  s t e p   18202                              ( at time 9.0995893E+00 )

 nodal point  x-rot      y-rot       z-rot       x-rot vel   y-rot vel   z-rot vel   x-rot acc   y-rot acc   z-rot acc
    22626  1.52002E-02 2.18510E-02-5.07061E-03 9.89794E-03 9.77685E-03-2.91331E-03 3.91843E-03 7.25648E-04-3.18335E-04



 n o d a l   p r i n t   o u t   f o r   t i m e  s t e p   18402                              ( at time 9.1995793E+00 )

 nodal point  x-disp     y-disp      z-disp      x-vel       y-vel       z-vel      x-accl      y-accl      z-accl      x-coor      y-coor      z-coor
    22626  4.69560E-01 2.86126E-01-2.54164E+01 2.65118E-01 8.46266E-02-9.77003E-01 6.80140E-02-4.53066E-02 7.15255E-01 4.84337E+01-2.17437E+01-1.80779E+01



 n o d a l   p r i n t   o u t   f o r   t i m e  s t e p   18402                              ( at time 9.1995793E+00 )

 nodal point  x-rot      y-rot       z-rot       x-rot vel   y-rot vel   z-rot vel   x-rot acc   y-rot acc   z-rot acc
    22626  1.62084E-02 2.28337E-02-5.36466E-03 1.02880E-02 9.88680E-03-2.96750E-03 3.90147E-03 1.09959E-03-5.41989E-04



 n o d a l   p r i n t   o u t   f o r   t i m e  s t e p   18602                              ( at time 9.2995693E+00 )

 nodal point  x-disp     y-disp      z-disp      x-vel       y-vel       z-vel      x-accl      y-accl      z-accl      x-coor      y-coor      z-coor
    22626  4.96421E-01 2.94390E-01-2.55103E+01 2.72624E-01 7.96803E-02-9.03642E-01 7.50737E-02-4.94677E-02 7.33687E-01 4.84606E+01-2.17354E+01-1.81718E+01



 n o d a l   p r i n t   o u t   f o r   t i m e  s t e p   18602                              ( at time 9.2995693E+00 )

 nodal point  x-rot      y-rot       z-rot       x-rot vel   y-rot vel   z-rot vel   x-rot acc   y-rot acc   z-rot acc
    22626  1.72572E-02 2.38265E-02-5.66427E-03 1.06871E-02 9.95454E-03-3.02616E-03 3.99062E-03 6.77475E-04-5.86588E-04



 n o d a l   p r i n t   o u t   f o r   t i m e  s t e p   18802                              ( at time 9.3995593E+00 )

 nodal point  x-disp     y-disp      z-disp      x-vel       y-vel       z-vel      x-accl      y-accl      z-accl      x-coor      y-coor      z-coor
    22626  5.24045E-01 3.02137E-01-2.55971E+01 2.80106E-01 7.52477E-02-8.31731E-01 7.48284E-02-4.43311E-02 7.19182E-01 4.84882E+01-2.17277E+01-1.82586E+01



 n o d a l   p r i n t   o u t   f o r   t i m e  s t e p   18802                              ( at time 9.3995593E+00 )

 nodal point  x-rot      y-rot       z-rot       x-rot vel   y-rot vel   z-rot vel   x-rot acc   y-rot acc   z-rot acc
    22626  1.83458E-02 2.48239E-02-5.96765E-03 1.10677E-02 1.00035E-02-3.07192E-03 3.80694E-03 4.89981E-04-4.57701E-04



 n o d a l   p r i n t   o u t   f o r   t i m e  s t e p   19002                              ( at time 9.4995493E+00 )

 nodal point  x-disp     y-disp      z-disp      x-vel       y-vel       z-vel      x-accl      y-accl      z-accl      x-coor      y-coor      z-coor
    22626  5.52336E-01 3.09500E-01-2.56767E+01 2.86450E-01 7.15315E-02-7.61994E-01 6.34445E-02-3.71658E-02 6.97442E-01 4.85165E+01-2.17203E+01-1.83382E+01



 n o d a l   p r i n t   o u t   f o r   t i m e  s t e p   19002                              ( at time 9.4995493E+00 )

 nodal point  x-rot      y-rot       z-rot       x-rot vel   y-rot vel   z-rot vel   x-rot acc   y-rot acc   z-rot acc
    22626  1.94735E-02 2.58303E-02-6.27644E-03 1.14822E-02 1.00981E-02-3.09399E-03 4.14469E-03 9.46003E-04-2.20683E-04



 n o d a l   p r i n t   o u t   f o r   t i m e  s t e p   19202                              ( at time 9.5995393E+00 )

 nodal point  x-disp     y-disp      z-disp      x-vel       y-vel       z-vel      x-accl      y-accl      z-accl      x-coor      y-coor      z-coor
    22626  5.81292E-01 3.16531E-01-2.57494E+01 2.93352E-01 7.09571E-02-6.92052E-01 6.90264E-02-5.74373E-03 6.99479E-01 4.85455E+01-2.17133E+01-1.84109E+01



 n o d a l   p r i n t   o u t   f o r   t i m e  s t e p   19202                              ( at time 9.5995393E+00 )

 nodal point  x-rot      y-rot       z-rot       x-rot vel   y-rot vel   z-rot vel   x-rot acc   y-rot acc   z-rot acc
    22626  2.06409E-02 2.68450E-02-6.58899E-03 1.18880E-02 1.01413E-02-3.15219E-03 4.05894E-03 4.32024E-04-5.82107E-04



 n o d a l   p r i n t   o u t   f o r   t i m e  s t e p   19402                              ( at time 9.6995293E+00 )

 nodal point  x-disp     y-disp      z-disp      x-vel       y-vel       z-vel      x-accl      y-accl      z-accl      x-coor      y-coor      z-coor
    22626  6.11024E-01 3.23326E-01-2.58153E+01 3.00278E-01 6.67654E-02-6.23808E-01 6.92643E-02-4.19218E-02 6.82515E-01 4.85752E+01-2.17065E+01-1.84768E+01



 n o d a l   p r i n t   o u t   f o r   t i m e  s t e p   19402                              ( at time 9.6995293E+00 )

 nodal point  x-rot      y-rot       z-rot       x-rot vel   y-rot vel   z-rot vel   x-rot acc   y-rot acc   z-rot acc
    22626  2.18484E-02 2.78625E-02-6.90613E-03 1.22736E-02 1.02263E-02-3.20613E-03 3.85581E-03 8.50179E-04-5.39423E-04



 n o d a l   p r i n t   o u t   f o r   t i m e  s t e p   19602                              ( at time 9.7995193E+00 )

 nodal point  x-disp     y-disp      z-disp      x-vel       y-vel       z-vel      x-accl      y-accl      z-accl      x-coor      y-coor      z-coor
    22626  6.41466E-01 3.29848E-01-2.58743E+01 3.07775E-01 6.34618E-02-5.59634E-01 7.49771E-02-3.30388E-02 6.41805E-01 4.86056E+01-2.16999E+01-1.85358E+01



 n o d a l   p r i n t   o u t   f o r   t i m e  s t e p   19602                              ( at time 9.7995193E+00 )

 nodal point  x-rot      y-rot       z-rot       x-rot vel   y-rot vel   z-rot vel   x-rot acc   y-rot acc   z-rot acc
    22626  2.30940E-02 2.88881E-02-7.22787E-03 1.26319E-02 1.02917E-02-3.21938E-03 3.58420E-03 6.54181E-04-1.32503E-04



 n o d a l   p r i n t   o u t   f o r   t i m e  s t e p   19802                              ( at time 9.8995093E+00 )

 nodal point  x-disp     y-disp      z-disp      x-vel       y-vel       z-vel      x-accl      y-accl      z-accl      x-coor      y-coor      z-coor
    22626  6.72611E-01 3.36395E-01-2.59270E+01 3.14718E-01 6.68306E-02-4.95566E-01 6.94366E-02 3.36905E-02 6.40742E-01 4.86368E+01-2.16934E+01-1.85885E+01



 n o d a l   p r i n t   o u t   f o r   t i m e  s t e p   19802                              ( at time 9.8995093E+00 )

 nodal point  x-rot      y-rot       z-rot       x-rot vel   y-rot vel   z-rot vel   x-rot acc   y-rot acc   z-rot acc
    22626  2.43800E-02 2.99183E-02-7.55456E-03 1.30641E-02 1.03266E-02-3.30668E-03 4.32257E-03 3.48694E-04-8.73075E-04



 n o d a l   p r i n t   o u t   f o r   t i m e  s t e p   20003                              ( at time 9.9999992E+00 )

 nodal point  x-disp     y-disp      z-disp      x-vel       y-vel       z-vel      x-accl      y-accl      z-accl      x-coor      y-coor      z-coor
[...]
    22626  2.56532E-01 1.53647E-01-7.04134E-02 1.78185E-02 8.03267E-03-6.02779E-03-2.00830E-04-6.81325E-05 4.25011E-04



 n o d a l   p r i n t   o u t   f o r   t i m e  s t e p   45205                              ( at time 2.2599738E+01 )

 nodal point  x-disp     y-disp      z-disp      x-vel       y-vel       z-vel      x-accl      y-accl      z-accl      x-coor      y-coor      z-coor
    22626  4.67881E+00 8.68875E-01-2.04094E+01 2.77841E-01-7.83798E-02 4.48233E-01 1.72461E-02-2.10722E-02-1.50825E-02 5.26430E+01-2.11609E+01-1.30709E+01



 n o d a l   p r i n t   o u t   f o r   t i m e  s t e p   45205                              ( at time 2.2599738E+01 )

 nodal point  x-rot      y-rot       z-rot       x-rot vel   y-rot vel   z-rot vel   x-rot acc   y-rot acc   z-rot acc
    22626  2.58313E-01 1.54450E-01-7.10139E-02 1.77995E-02 8.03341E-03-5.98758E-03-1.90380E-04 7.34881E-06 4.02177E-04



 n o d a l   p r i n t   o u t   f o r   t i m e  s t e p   45405                              ( at time 2.2699728E+01 )

 nodal point  x-disp     y-disp      z-disp      x-vel       y-vel       z-vel      x-accl      y-accl      z-accl      x-coor      y-coor      z-coor
    22626  4.70664E+00 8.60920E-01-2.03646E+01 2.78841E-01-8.08172E-02 4.46731E-01 1.00049E-02-2.43762E-02-1.50271E-02 5.26708E+01-2.11689E+01-1.30261E+01



 n o d a l   p r i n t   o u t   f o r   t i m e  s t e p   45405                              ( at time 2.2699728E+01 )

 nodal point  x-rot      y-rot       z-rot       x-rot vel   y-rot vel   z-rot vel   x-rot acc   y-rot acc   z-rot acc
    22626  2.60091E-01 1.55253E-01-7.16103E-02 1.77751E-02 8.02834E-03-5.94514E-03-2.43791E-04-5.06975E-05 4.24488E-04



 n o d a l   p r i n t   o u t   f o r   t i m e  s t e p   45605                              ( at time 2.2799718E+01 )

 nodal point  x-disp     y-disp      z-disp      x-vel       y-vel       z-vel      x-accl      y-accl      z-accl      x-coor      y-coor      z-coor
    22626  4.73458E+00 8.52743E-01-2.03200E+01 2.80081E-01-8.28607E-02 4.44956E-01 1.23998E-02-2.04371E-02-1.77537E-02 5.26988E+01-2.11770E+01-1.29815E+01



 n o d a l   p r i n t   o u t   f o r   t i m e  s t e p   45605                              ( at time 2.2799718E+01 )

 nodal point  x-rot      y-rot       z-rot       x-rot vel   y-rot vel   z-rot vel   x-rot acc   y-rot acc   z-rot acc
    22626  2.61868E-01 1.56055E-01-7.22027E-02 1.77609E-02 8.02365E-03-5.90789E-03-1.42114E-04-4.68778E-05 3.72526E-04



 n o d a l   p r i n t   o u t   f o r   t i m e  s t e p   45805                              ( at time 2.2899708E+01 )

 nodal point  x-disp     y-disp      z-disp      x-vel       y-vel       z-vel      x-accl      y-accl      z-accl      x-coor      y-coor      z-coor
    22626  4.76268E+00 8.44324E-01-2.02756E+01 2.81790E-01-8.52891E-02 4.43730E-01 1.70908E-02-2.42867E-02-1.22579E-02 5.27269E+01-2.11855E+01-1.29371E+01



 n o d a l   p r i n t   o u t   f o r   t i m e  s t e p   45805                              ( at time 2.2899708E+01 )

 nodal point  x-rot      y-rot       z-rot       x-rot vel   y-rot vel   z-rot vel   x-rot acc   y-rot acc   z-rot acc
    22626  2.63643E-01 1.56858E-01-7.27916E-02 1.77545E-02 8.01964E-03-5.87309E-03-6.42125E-05-4.01072E-05 3.47962E-04



 n o d a l   p r i n t   o u t   f o r   t i m e  s t e p   46005                              ( at time 2.2999698E+01 )

 nodal point  x-disp     y-disp      z-disp      x-vel       y-vel       z-vel      x-accl      y-accl      z-accl      x-coor      y-coor      z-coor
    22626  4.79092E+00 8.35680E-01-2.02313E+01 2.83178E-01-8.75269E-02 4.41949E-01 1.38820E-02-2.23800E-02-1.78157E-02 5.27551E+01-2.11941E+01-1.28928E+01



 n o d a l   p r i n t   o u t   f o r   t i m e  s t e p   46005                              ( at time 2.2999698E+01 )

 nodal point  x-rot      y-rot       z-rot       x-rot vel   y-rot vel   z-rot vel   x-rot acc   y-rot acc   z-rot acc
    22626  2.65419E-01 1.57660E-01-7.33766E-02 1.77575E-02 8.02073E-03-5.82988E-03 2.98609E-05 1.08695E-05 4.32178E-04



 n o d a l   p r i n t   o u t   f o r   t i m e  s t e p   46205                              ( at time 2.3099688E+01 )

 nodal point  x-disp     y-disp      z-disp      x-vel       y-vel       z-vel      x-accl      y-accl      z-accl      x-coor      y-coor      z-coor
    22626  4.81929E+00 8.26829E-01-2.01872E+01 2.84305E-01-8.95337E-02 4.40162E-01 1.12713E-02-2.00698E-02-1.78661E-02 5.27835E+01-2.12030E+01-1.28487E+01



 n o d a l   p r i n t   o u t   f o r   t i m e  s t e p   46205                              ( at time 2.3099688E+01 )

 nodal point  x-rot      y-rot       z-rot       x-rot vel   y-rot vel   z-rot vel   x-rot acc   y-rot acc   z-rot acc
    22626  2.67194E-01 1.58461E-01-7.39578E-02 1.77442E-02 8.01870E-03-5.79936E-03-1.32765E-04-2.03051E-05 3.05275E-04



 n o d a l   p r i n t   o u t   f o r   t i m e  s t e p   46405                              ( at time 2.3199678E+01 )

 nodal point  x-disp     y-disp      z-disp      x-vel       y-vel       z-vel      x-accl      y-accl      z-accl      x-coor      y-coor      z-coor
    22626  4.84778E+00 8.17798E-01-2.01433E+01 2.85535E-01-9.08092E-02 4.38869E-01 1.22982E-02-1.27570E-02-1.29345E-02 5.28120E+01-2.12120E+01-1.28048E+01



 n o d a l   p r i n t   o u t   f o r   t i m e  s t e p   46405                              ( at time 2.3199678E+01 )

 nodal point  x-rot      y-rot       z-rot       x-rot vel   y-rot vel   z-rot vel   x-rot acc   y-rot acc   z-rot acc
    22626  2.68968E-01 1.59263E-01-7.45358E-02 1.77551E-02 8.01728E-03-5.76606E-03 1.08956E-04-1.42319E-05 3.33030E-04



 n o d a l   p r i n t   o u t   f o r   t i m e  s t e p   46605                              ( at time 2.3299668E+01 )

 nodal point  x-disp     y-disp      z-disp      x-vel       y-vel       z-vel      x-accl      y-accl      z-accl      x-coor      y-coor      z-coor
    22626  4.87641E+00 8.08636E-01-2.00995E+01 2.86790E-01-9.24594E-02 4.37352E-01 1.25571E-02-1.65033E-02-1.51743E-02 5.28406E+01-2.12212E+01-1.27609E+01



 n o d a l   p r i n t   o u t   f o r   t i m e  s t e p   46605                              ( at time 2.3299668E+01 )

 nodal point  x-rot      y-rot       z-rot       x-rot vel   y-rot vel   z-rot vel   x-rot acc   y-rot acc   z-rot acc
    22626  2.70744E-01 1.60065E-01-7.51103E-02 1.77636E-02 8.01319E-03-5.72913E-03 8.53186E-05-4.08989E-05 3.69310E-04



 n o d a l   p r i n t   o u t   f o r   t i m e  s t e p   46805                              ( at time 2.3399658E+01 )

 nodal point  x-disp     y-disp      z-disp      x-vel       y-vel       z-vel      x-accl      y-accl      z-accl      x-coor      y-coor      z-coor
    22626  4.90514E+00 7.99332E-01-2.00558E+01 2.87699E-01-9.36184E-02 4.35569E-01 9.08369E-03-1.15910E-02-1.78270E-02 5.28693E+01-2.12305E+01-1.27173E+01



 n o d a l   p r i n t   o u t   f o r   t i m e  s t e p   46805                              ( at time 2.3399658E+01 )

 nodal point  x-rot      y-rot       z-rot       x-rot vel   y-rot vel   z-rot vel   x-rot acc   y-rot acc   z-rot acc
    22626  2.72521E-01 1.60866E-01-7.56811E-02 1.77663E-02 8.01120E-03-5.69467E-03 2.72530E-05-1.98483E-05 3.44602E-04



 n o d a l   p r i n t   o u t   f o r   t i m e  s t e p   47005                              ( at time 2.3499648E+01 )

 nodal point  x-disp     y-disp      z-disp      x-vel       y-vel       z-vel      x-accl      y-accl      z-accl      x-coor      y-coor      z-coor
    22626  4.93396E+00 7.89907E-01-2.00124E+01 2.88941E-01-9.47623E-02 4.33633E-01 1.24242E-02-1.14404E-02-1.93581E-02 5.28981E+01-2.12399E+01-1.26739E+01



 n o d a l   p r i n t   o u t   f o r   t i m e  s t e p   47005                              ( at time 2.3499648E+01 )

 nodal point  x-rot      y-rot       z-rot       x-rot vel   y-rot vel   z-rot vel   x-rot acc   y-rot acc   z-rot acc
    22626  2.74298E-01 1.61667E-01-7.62490E-02 1.77799E-02 8.00775E-03-5.67085E-03 1.36190E-04-3.44807E-05 2.38291E-04



 n o d a l   p r i n t   o u t   f o r   t i m e  s t e p   47205                              ( at time 2.3599638E+01 )

 nodal point  x-disp     y-disp      z-disp      x-vel       y-vel       z-vel      x-accl      y-accl      z-accl      x-coor      y-coor      z-coor
    22626  4.96287E+00 7.80399E-01-1.99691E+01 2.89540E-01-9.50321E-02 4.32101E-01 5.99659E-03-2.69756E-03-1.53252E-02 5.29271E+01-2.12494E+01-1.26306E+01



 n o d a l   p r i n t   o u t   f o r   t i m e  s t e p   47205                              ( at time 2.3599638E+01 )

 nodal point  x-rot      y-rot       z-rot       x-rot vel   y-rot vel   z-rot vel   x-rot acc   y-rot acc   z-rot acc
    22626  2.76077E-01 1.62468E-01-7.68136E-02 1.77967E-02 8.00364E-03-5.63149E-03 1.67303E-04-4.11411E-05 3.93579E-04



 n o d a l   p r i n t   o u t   f o r   t i m e  s t e p   47405                              ( at time 2.3699628E+01 )

 nodal point  x-disp     y-disp      z-disp      x-vel       y-vel       z-vel      x-accl      y-accl      z-accl      x-coor      y-coor      z-coor
    22626  4.99185E+00 7.70876E-01-1.99260E+01 2.89979E-01-9.56884E-02 4.30164E-01 4.38373E-03-6.56382E-03-1.93736E-02 5.29560E+01-2.12589E+01-1.25875E+01



 n o d a l   p r i n t   o u t   f o r   t i m e  s t e p   47405                              ( at time 2.3699628E+01 )

 nodal point  x-rot      y-rot       z-rot       x-rot vel   y-rot vel   z-rot vel   x-rot acc   y-rot acc   z-rot acc
    22626  2.77857E-01 1.63268E-01-7.73750E-02 1.78050E-02 8.00273E-03-5.60471E-03 8.28767E-05-9.10917E-06 2.67878E-04



 n o d a l   p r i n t   o u t   f o r   t i m e  s t e p   47605                              ( at time 2.3799618E+01 )

 nodal point  x-disp     y-disp      z-disp      x-vel       y-vel       z-vel      x-accl      y-accl      z-accl      x-coor      y-coor      z-coor
    22626  5.02090E+00 7.61298E-01-1.98831E+01 2.90779E-01-9.57175E-02 4.28232E-01 7.99923E-03-2.90828E-04-1.93161E-02 5.29851E+01-2.12685E+01-1.25446E+01



 n o d a l   p r i n t   o u t   f o r   t i m e  s t e p   47605                              ( at time 2.3799618E+01 )

 nodal point  x-rot      y-rot       z-rot       x-rot vel   y-rot vel   z-rot vel   x-rot acc   y-rot acc   z-rot acc
    22626  2.79638E-01 1.64068E-01-7.79338E-02 1.78212E-02 7.99440E-03-5.57568E-03 1.62720E-04-8.33346E-05 2.90321E-04



 n o d a l   p r i n t   o u t   f o r   t i m e  s t e p   47805                              ( at time 2.3899608E+01 )

 nodal point  x-disp     y-disp      z-disp      x-vel       y-vel       z-vel      x-accl      y-accl      z-accl      x-coor      y-coor      z-coor
    22626  5.04997E+00 7.51722E-01-1.98403E+01 2.91207E-01-9.58221E-02 4.26280E-01 4.28746E-03-1.04698E-03-1.95223E-02 5.30142E+01-2.12781E+01-1.25018E+01



 n o d a l   p r i n t   o u t   f o r   t i m e  s t e p   47805                              ( at time 2.3899608E+01 )

 nodal point  x-rot      y-rot       z-rot       x-rot vel   y-rot vel   z-rot vel   x-rot acc   y-rot acc   z-rot acc
    22626  2.81421E-01 1.64867E-01-7.84898E-02 1.78442E-02 7.98715E-03-5.54508E-03 2.30188E-04-7.24822E-05 3.06042E-04



 n o d a l   p r i n t   o u t   f o r   t i m e  s t e p   48005                              ( at time 2.3999598E+01 )

 nodal point  x-disp     y-disp      z-disp      x-vel       y-vel       z-vel      x-accl      y-accl      z-accl      x-coor      y-coor      z-coor
    22626  5.07911E+00 7.42157E-01-1.97978E+01 2.91610E-01-9.54467E-02 4.24072E-01 4.02793E-03 3.75476E-03-2.20872E-02 5.30433E+01-2.12876E+01-1.24593E+01



 n o d a l   p r i n t   o u t   f o r   t i m e  s t e p   48005                              ( at time 2.3999598E+01 )

 nodal point  x-rot      y-rot       z-rot       x-rot vel   y-rot vel   z-rot vel   x-rot acc   y-rot acc   z-rot acc
    22626  2.83206E-01 1.65665E-01-7.90429E-02 1.78666E-02 7.97973E-03-5.52109E-03 2.23542E-04-7.42439E-05 2.39926E-04



 n o d a l   p r i n t   o u t   f o r   t i m e  s t e p   48205                              ( at time 2.4099588E+01 )

 nodal point  x-disp     y-disp      z-disp      x-vel       y-vel       z-vel      x-accl      y-accl      z-accl      x-coor      y-coor      z-coor
    22626  5.10827E+00 7.32654E-01-1.97556E+01 2.91562E-01-9.45991E-02 4.21690E-01-4.84630E-04 8.47648E-03-2.38202E-02 5.30724E+01-2.12971E+01-1.24171E+01



 n o d a l   p r i n t   o u t   f o r   t i m e  s t e p   48205                              ( at time 2.4099588E+01 )

 nodal point  x-rot      y-rot       z-rot       x-rot vel   y-rot vel   z-rot vel   x-rot acc   y-rot acc   z-rot acc
    22626  2.84994E-01 1.66463E-01-7.95938E-02 1.78878E-02 7.97160E-03-5.50054E-03 2.11523E-04-8.12281E-05 2.05538E-04



 n o d a l   p r i n t   o u t   f o r   t i m e  s t e p   48405                              ( at time 2.4199578E+01 )

 nodal point  x-disp     y-disp      z-disp      x-vel       y-vel       z-vel      x-accl      y-accl      z-accl      x-coor      y-coor      z-coor
    22626  5.13745E+00 7.23225E-01-1.97135E+01 2.91913E-01-9.39440E-02 4.19434E-01 3.51080E-03 6.55254E-03-2.25652E-02 5.31016E+01-2.13066E+01-1.23750E+01



 n o d a l   p r i n t   o u t   f o r   t i m e  s t e p   48405                              ( at time 2.4199578E+01 )

 nodal point  x-rot      y-rot       z-rot       x-rot vel   y-rot vel   z-rot vel   x-rot acc   y-rot acc   z-rot acc
    22626  2.86784E-01 1.67259E-01-8.01425E-02 1.79113E-02 7.96068E-03-5.47787E-03 2.35315E-04-1.09275E-04 2.26653E-04



 n o d a l   p r i n t   o u t   f o r   t i m e  s t e p   48605                              ( at time 2.4299568E+01 )

 nodal point  x-disp     y-disp      z-disp      x-vel       y-vel       z-vel      x-accl      y-accl      z-accl      x-coor      y-coor      z-coor
    22626  5.16664E+00 7.13872E-01-1.96717E+01 2.92059E-01-9.29065E-02 4.17307E-01 1.46790E-03 1.03753E-02-2.12713E-02 5.31308E+01-2.13159E+01-1.23332E+01



 n o d a l   p r i n t   o u t   f o r   t i m e  s t e p   48605                              ( at time 2.4299568E+01 )

 nodal point  x-rot      y-rot       z-rot       x-rot vel   y-rot vel   z-rot vel   x-rot acc   y-rot acc   z-rot acc
    22626  2.88576E-01 1.68055E-01-8.06891E-02 1.79372E-02 7.95237E-03-5.45725E-03 2.59490E-04-8.30443E-05 2.06246E-04



 n o d a l   p r i n t   o u t   f o r   t i m e  s t e p   48805                              ( at time 2.4399558E+01 )

 nodal point  x-disp     y-disp      z-disp      x-vel       y-vel       z-vel      x-accl      y-accl      z-accl      x-coor      y-coor      z-coor
    22626  5.19582E+00 7.04659E-01-1.96301E+01 2.91741E-01-9.16358E-02 4.14497E-01-3.18199E-03 1.27081E-02-2.80978E-02 5.31600E+01-2.13251E+01-1.22916E+01



 n o d a l   p r i n t   o u t   f o r   t i m e  s t e p   48805                              ( at time 2.4399558E+01 )

 nodal point  x-rot      y-rot       z-rot       x-rot vel   y-rot vel   z-rot vel   x-rot acc   y-rot acc   z-rot acc
    22626  2.90370E-01 1.68849E-01-8.12338E-02 1.79513E-02 7.93697E-03-5.43707E-03 1.41183E-04-1.54027E-04 2.01808E-04



 n o d a l   p r i n t   o u t   f o r   t i m e  s t e p   49006                              ( at time 2.4500048E+01 )

 nodal point  x-disp     y-disp      z-disp      x-vel       y-vel       z-vel      x-accl      y-accl      z-accl      x-coor      y-coor      z-coor
    22626  5.22512E+00 6.95518E-01-1.95885E+01 2.91624E-01-9.02077E-02 4.12670E-01-1.17147E-03 1.42115E-02-1.81853E-02 5.31893E+01-2.13343E+01-1.22500E+01



 n o d a l   p r i n t   o u t   f o r   t i m e  s t e p   49006                              ( at time 2.4500048E+01 )

 nodal point  x-rot      y-rot       z-rot       x-rot vel   y-rot vel   z-rot vel   x-rot acc   y-rot acc   z-rot acc
    22626  2.92176E-01 1.69646E-01-8.17794E-02 1.79805E-02 7.92916E-03-5.42007E-03 2.90049E-04-7.77395E-05 1.69205E-04



 n o d a l   p r i n t   o u t   f o r   t i m e  s t e p   49206                              ( at time 2.4600038E+01 )

 nodal point  x-disp     y-disp      z-disp      x-vel       y-vel       z-vel      x-accl      y-accl      z-accl      x-coor      y-coor      z-coor
    22626  5.25428E+00 6.86588E-01-1.95474E+01 2.91528E-01-8.83623E-02 4.10521E-01-9.58828E-04 1.84562E-02-2.14894E-02 5.32185E+01-2.13432E+01-1.22089E+01



 n o d a l   p r i n t   o u t   f o r   t i m e  s t e p   49206                              ( at time 2.4600038E+01 )

 nodal point  x-rot      y-rot       z-rot       x-rot vel   y-rot vel   z-rot vel   x-rot acc   y-rot acc   z-rot acc
    22626  2.93974E-01 1.70439E-01-8.23202E-02 1.79942E-02 7.91666E-03-5.40189E-03 1.36936E-04-1.25004E-04 1.81820E-04



 n o d a l   p r i n t   o u t   f o r   t i m e  s t e p   49406                              ( at time 2.4700028E+01 )

 nodal point  x-disp     y-disp      z-disp      x-vel       y-vel       z-vel      x-accl      y-accl      z-accl      x-coor      y-coor      z-coor
    22626  5.28340E+00 6.77804E-01-1.95064E+01 2.90907E-01-8.72212E-02 4.08161E-01-6.20851E-03 1.14126E-02-2.36061E-02 5.32476E+01-2.13520E+01-1.21679E+01



 n o d a l   p r i n t   o u t   f o r   t i m e  s t e p   49406                              ( at time 2.4700028E+01 )

 nodal point  x-rot      y-rot       z-rot       x-rot vel   y-rot vel   z-rot vel   x-rot acc   y-rot acc   z-rot acc
    22626  2.95775E-01 1.71229E-01-8.28595E-02 1.80174E-02 7.90463E-03-5.38751E-03 2.31944E-04-1.20312E-04 1.43821E-04



 n o d a l   p r i n t   o u t   f o r   t i m e  s t e p   49606                              ( at time 2.4800018E+01 )

 nodal point  x-disp     y-disp      z-disp      x-vel       y-vel       z-vel      x-accl      y-accl      z-accl      x-coor      y-coor      z-coor
    22626  5.31247E+00 6.69170E-01-1.94657E+01 2.90525E-01-8.55276E-02 4.05753E-01-3.82011E-03 1.69376E-02-2.40795E-02 5.32767E+01-2.13606E+01-1.21272E+01



 n o d a l   p r i n t   o u t   f o r   t i m e  s t e p   49606                              ( at time 2.4800018E+01 )

 nodal point  x-rot      y-rot       z-rot       x-rot vel   y-rot vel   z-rot vel   x-rot acc   y-rot acc   z-rot acc
    22626  2.97577E-01 1.72020E-01-8.33973E-02 1.80361E-02 7.89357E-03-5.36902E-03 1.87269E-04-1.10586E-04 1.84917E-04



 n o d a l   p r i n t   o u t   f o r   t i m e  s t e p   49806                              ( at time 2.4900008E+01 )

 nodal point  x-disp     y-disp      z-disp      x-vel       y-vel       z-vel      x-accl      y-accl      z-accl      x-coor      y-coor      z-coor
    22626  5.34148E+00 6.60699E-01-1.94253E+01 2.89736E-01-8.38427E-02 4.04022E-01-7.88895E-03 1.68509E-02-1.73108E-02 5.33057E+01-2.13691E+01-1.20868E+01



 n o d a l   p r i n t   o u t   f o r   t i m e  s t e p   49806                              ( at time 2.4900008E+01 )

 nodal point  x-rot      y-rot       z-rot       x-rot vel   y-rot vel   z-rot vel   x-rot acc   y-rot acc   z-rot acc
    22626  2.99382E-01 1.72808E-01-8.39335E-02 1.80569E-02 7.87885E-03-5.35615E-03 2.07838E-04-1.47240E-04 1.28709E-04



 n o d a l   p r i n t   o u t   f o r   t i m e  s t e p   50006                              ( at time 2.4999998E+01 )

 nodal point  x-disp     y-disp      z-disp      x-vel       y-vel       z-vel      x-accl      y-accl      z-accl      x-coor      y-coor      z-coor
    22626  5.37044E+00 6.52401E-01-1.93850E+01 2.89254E-01-8.22454E-02 4.01271E-01-4.81769E-03 1.59736E-02-2.75127E-02 5.33346E+01-2.13774E+01-1.20465E+01



 n o d a l   p r i n t   o u t   f o r   t i m e  s t e p   50006                              ( at time 2.4999998E+01 )

 nodal point  x-rot      y-rot       z-rot       x-rot vel   y-rot vel   z-rot vel   x-rot acc   y-rot acc   z-rot acc
    22626  3.01189E-01 1.73595E-01-8.44683E-02 1.80837E-02 7.86464E-03-5.34223E-03 2.67780E-04-1.42133E-04 1.39180E-04
